* +++++++++++++++++++++++++++++++++++++++++++++++++++++++++ *
* CDL Netlist:                                              *
*                                                           *
* Cell Name  : aska_dig_lvs                                 *
* Netlisted  : Mon Sep  9 14:36:59 2024                     *
* PVS Version: 23.10-p043 Mon Oct 2 18:09:08 PDT 2023      *
* +++++++++++++++++++++++++++++++++++++++++++++++++++++++++ *
*.LDD
*.DEVTMPLT 0 MN(ne3i) nemi ndiff(D) p1trm(G) ndiff(S) pwitrm(B)
*.DEVTMPLT 1 MP(pe3i) pemi pdiff(D) p1trm(G) pdiff(S) dnwtrm(B)
*.DEVTMPLT 2 D(p_ddnwmv) p_ddnwmv bulk(POS) dnwtrm(NEG)
*.DEVTMPLT 3 D(p_dipdnwmv) p_dipwmv pwitrm(POS) dnwtrm(NEG)

* +++++++++++++++++++++++++++++++++++++++++++++++++++++++++ *
* Sub cell: EN2JI3VX0                                       *
* +++++++++++++++++++++++++++++++++++++++++++++++++++++++++ *
.subckt EN2JI3VX0 vdd3i! gnd3i! A B Q
*.DEVICECLIMB
** N=10 EP=5 FDC=10
M0 8 A 9 gnd3i! ne3i L=3.5e-07 W=4.2e-07 AD=5.25e-14 AS=2.016e-13 PD=6.7e-07 PS=1.8e-06 $X=620 $Y=980 $dt=0
M1 gnd3i! B 8 gnd3i! ne3i L=3.5e-07 W=4.2e-07 AD=1.134e-13 AS=5.25e-14 PD=9.6e-07 PS=6.7e-07 $X=1220 $Y=980 $dt=0
M2 7 A gnd3i! gnd3i! ne3i L=3.5e-07 W=4.2e-07 AD=1.134e-13 AS=1.134e-13 PD=9.6e-07 PS=9.6e-07 $X=2110 $Y=980 $dt=0
M3 gnd3i! B 7 gnd3i! ne3i L=3.5e-07 W=4.2e-07 AD=3.698e-13 AS=1.134e-13 PD=3.22e-06 PS=9.6e-07 $X=3000 $Y=980 $dt=0
M4 Q 9 7 gnd3i! ne3i L=3.5e-07 W=4.2e-07 AD=2.016e-13 AS=2.058e-13 PD=1.8e-06 PS=1.82e-06 $X=4440 $Y=1020 $dt=0
M5 9 A vdd3i! vdd3i! pe3i L=3e-07 W=9e-07 AD=3.195e-13 AS=8.517e-13 PD=1.61e-06 PS=4.61e-06 $X=685 $Y=2410 $dt=1
M6 vdd3i! B 9 vdd3i! pe3i L=3e-07 W=9e-07 AD=4.30855e-13 AS=3.195e-13 PD=1.83273e-06 PS=1.61e-06 $X=1695 $Y=2410 $dt=1
M7 10 A vdd3i! vdd3i! pe3i L=3e-07 W=1.3e-06 AD=1.95e-13 AS=6.22345e-13 PD=1.6e-06 PS=2.64727e-06 $X=2825 $Y=2520 $dt=1
M8 Q B 10 vdd3i! pe3i L=3e-07 W=1.3e-06 AD=6.21324e-13 AS=1.95e-13 PD=2.52941e-06 PS=1.6e-06 $X=3425 $Y=2520 $dt=1
M9 vdd3i! 9 Q vdd3i! pe3i L=3e-07 W=9.1e-07 AD=8.0675e-13 AS=4.34926e-13 PD=4.39e-06 PS=1.77059e-06 $X=4575 $Y=2520 $dt=1
.ends EN2JI3VX0

* +++++++++++++++++++++++++++++++++++++++++++++++++++++++++ *
* Sub cell: NO3JI3VX1                                       *
* +++++++++++++++++++++++++++++++++++++++++++++++++++++++++ *
.subckt NO3JI3VX1 vdd3i! gnd3i! C Q B A
*.DEVICECLIMB
** N=9 EP=6 FDC=6
M0 Q C gnd3i! gnd3i! ne3i L=3.4986e-07 W=8.92071e-07 AD=2.37813e-13 AS=4.30337e-13 PD=1.42707e-06 PS=2.76707e-06 $X=620 $Y=660 $dt=0
M1 gnd3i! B Q gnd3i! ne3i L=3.4986e-07 W=8.92071e-07 AD=2.40287e-13 AS=2.37813e-13 PD=1.44207e-06 PS=1.42707e-06 $X=1500 $Y=660 $dt=0
M2 Q A gnd3i! gnd3i! ne3i L=3.4986e-07 W=8.92071e-07 AD=4.29162e-13 AS=2.40287e-13 PD=2.74707e-06 PS=1.44207e-06 $X=2390 $Y=660 $dt=0
M3 9 C vdd3i! vdd3i! pe3i L=3e-07 W=1.41e-06 AD=2.1855e-13 AS=1.3994e-12 PD=1.72e-06 PS=5.15e-06 $X=955 $Y=2410 $dt=1
M4 8 B 9 vdd3i! pe3i L=3e-07 W=1.41e-06 AD=2.1855e-13 AS=2.1855e-13 PD=1.72e-06 PS=1.72e-06 $X=1565 $Y=2410 $dt=1
M5 Q A 8 vdd3i! pe3i L=3e-07 W=1.41e-06 AD=6.768e-13 AS=2.1855e-13 PD=3.78e-06 PS=1.72e-06 $X=2175 $Y=2410 $dt=1
.ends NO3JI3VX1

* +++++++++++++++++++++++++++++++++++++++++++++++++++++++++ *
* Sub cell: NA2JI3VX2                                       *
* +++++++++++++++++++++++++++++++++++++++++++++++++++++++++ *
.subckt NA2JI3VX2 vdd3i! gnd3i! B Q A
*.DEVICECLIMB
** N=8 EP=5 FDC=8
M0 8 B gnd3i! gnd3i! ne3i L=3.5e-07 W=8.9e-07 AD=1.1125e-13 AS=7.09e-13 PD=1.14e-06 PS=3.68e-06 $X=740 $Y=660 $dt=0
M1 Q A 8 gnd3i! ne3i L=3.5e-07 W=8.9e-07 AD=2.403e-13 AS=1.1125e-13 PD=1.43e-06 PS=1.14e-06 $X=1340 $Y=660 $dt=0
M2 7 A Q gnd3i! ne3i L=3.5e-07 W=8.9e-07 AD=1.1125e-13 AS=2.403e-13 PD=1.14e-06 PS=1.43e-06 $X=2230 $Y=660 $dt=0
M3 gnd3i! B 7 gnd3i! ne3i L=3.5e-07 W=8.9e-07 AD=7.09e-13 AS=1.1125e-13 PD=3.68e-06 PS=1.14e-06 $X=2830 $Y=660 $dt=0
M4 Q B vdd3i! vdd3i! pe3i L=3e-07 W=1e-06 AD=2.7e-13 AS=8.172e-13 PD=1.54e-06 PS=4.22e-06 $X=540 $Y=2410 $dt=1
M5 vdd3i! A Q vdd3i! pe3i L=3e-07 W=1e-06 AD=8.172e-13 AS=2.7e-13 PD=4.22e-06 PS=1.54e-06 $X=1380 $Y=2410 $dt=1
M6 Q A vdd3i! vdd3i! pe3i L=3e-07 W=1e-06 AD=2.7e-13 AS=8.172e-13 PD=1.54e-06 PS=4.22e-06 $X=2240 $Y=2410 $dt=1
M7 vdd3i! B Q vdd3i! pe3i L=3e-07 W=1e-06 AD=8.172e-13 AS=2.7e-13 PD=4.22e-06 PS=1.54e-06 $X=3080 $Y=2410 $dt=1
.ends NA2JI3VX2

* +++++++++++++++++++++++++++++++++++++++++++++++++++++++++ *
* Sub cell: NO22JI3VX1                                      *
* +++++++++++++++++++++++++++++++++++++++++++++++++++++++++ *
.subckt NO22JI3VX1 vdd3i! gnd3i! B A Q C
*.DEVICECLIMB
** N=10 EP=6 FDC=8
M0 8 B gnd3i! gnd3i! ne3i L=3.5e-07 W=4.2e-07 AD=1.134e-13 AS=4.87734e-13 PD=9.6e-07 PS=2.24324e-06 $X=720 $Y=1130 $dt=0
M1 gnd3i! A 8 gnd3i! ne3i L=3.5e-07 W=4.2e-07 AD=4.87734e-13 AS=1.134e-13 PD=2.24324e-06 PS=9.6e-07 $X=1610 $Y=1130 $dt=0
M2 Q 8 gnd3i! gnd3i! ne3i L=3.5e-07 W=8.9e-07 AD=2.403e-13 AS=1.03353e-12 PD=1.43e-06 PS=4.75353e-06 $X=2580 $Y=660 $dt=0
M3 gnd3i! C Q gnd3i! ne3i L=3.5e-07 W=8.9e-07 AD=6.098e-13 AS=2.403e-13 PD=3.52e-06 PS=1.43e-06 $X=3470 $Y=660 $dt=0
M4 10 B vdd3i! vdd3i! pe3i L=3e-07 W=8.5e-07 AD=1.0625e-13 AS=1.0178e-12 PD=1.1e-06 PS=4.78e-06 $X=770 $Y=2410 $dt=1
M5 8 A 10 vdd3i! pe3i L=3e-07 W=8.5e-07 AD=4.505e-13 AS=1.0625e-13 PD=2.76e-06 PS=1.1e-06 $X=1320 $Y=2410 $dt=1
M6 9 8 Q vdd3i! pe3i L=3e-07 W=1.41e-06 AD=1.7625e-13 AS=6.768e-13 PD=1.66e-06 PS=3.78e-06 $X=2920 $Y=2410 $dt=1
M7 vdd3i! C 9 vdd3i! pe3i L=3e-07 W=1.41e-06 AD=9.682e-13 AS=1.7625e-13 PD=4.66e-06 PS=1.66e-06 $X=3470 $Y=2410 $dt=1
.ends NO22JI3VX1

* +++++++++++++++++++++++++++++++++++++++++++++++++++++++++ *
* Sub cell: DFRRQJI3VX2                                     *
* +++++++++++++++++++++++++++++++++++++++++++++++++++++++++ *
.subckt DFRRQJI3VX2 vdd3i! gnd3i! RN D C Q
*.DEVICECLIMB
** N=23 EP=6 FDC=32
M0 gnd3i! 17 19 gnd3i! ne3i L=3.5e-07 W=6.6e-07 AD=1.94849e-13 AS=3.168e-13 PD=1.21781e-06 PS=2.28e-06 $X=620 $Y=660 $dt=0
M1 10 RN gnd3i! gnd3i! ne3i L=3.5e-07 W=8.9e-07 AD=3.28952e-13 AS=2.62751e-13 PD=2.36956e-06 PS=1.64219e-06 $X=1510 $Y=660 $dt=0
M2 18 19 10 gnd3i! ne3i L=3.5e-07 W=4.2e-07 AD=5.25e-14 AS=1.55236e-13 PD=6.7e-07 PS=1.11822e-06 $X=2340 $Y=1390 $dt=0
M3 17 9 18 gnd3i! ne3i L=3.5e-07 W=4.2e-07 AD=1.134e-13 AS=5.25e-14 PD=9.6e-07 PS=6.7e-07 $X=2940 $Y=1390 $dt=0
M4 16 15 17 gnd3i! ne3i L=3.5e-07 W=4.2e-07 AD=5.25e-14 AS=1.134e-13 PD=6.7e-07 PS=9.6e-07 $X=3830 $Y=1390 $dt=0
M5 10 D 16 gnd3i! ne3i L=3.5e-07 W=4.2e-07 AD=2.835e-13 AS=5.25e-14 PD=2.19e-06 PS=6.7e-07 $X=4430 $Y=1390 $dt=0
M6 gnd3i! C 15 gnd3i! ne3i L=3.5e-07 W=4.2e-07 AD=1.659e-13 AS=2.016e-13 PD=1.21e-06 PS=1.8e-06 $X=6060 $Y=1390 $dt=0
M7 9 15 gnd3i! gnd3i! ne3i L=3.5e-07 W=4.2e-07 AD=2.95e-13 AS=1.659e-13 PD=2.23e-06 PS=1.21e-06 $X=7045 $Y=1390 $dt=0
M8 14 19 8 gnd3i! ne3i L=3.5e-07 W=4.2e-07 AD=5.25e-14 AS=2.016e-13 PD=6.7e-07 PS=1.8e-06 $X=8695 $Y=1020 $dt=0
M9 13 9 14 gnd3i! ne3i L=3.5e-07 W=4.2e-07 AD=1.134e-13 AS=5.25e-14 PD=9.6e-07 PS=6.7e-07 $X=9295 $Y=1020 $dt=0
M10 12 15 13 gnd3i! ne3i L=3.5e-07 W=4.2e-07 AD=5.25e-14 AS=1.134e-13 PD=6.7e-07 PS=9.6e-07 $X=10185 $Y=1020 $dt=0
M11 8 11 12 gnd3i! ne3i L=3.5e-07 W=4.2e-07 AD=1.55817e-13 AS=5.25e-14 PD=9.68244e-07 PS=6.7e-07 $X=10785 $Y=1020 $dt=0
M12 gnd3i! RN 8 gnd3i! ne3i L=3.5e-07 W=8.9e-07 AD=5.94987e-13 AS=3.30183e-13 PD=3.35209e-06 PS=2.05176e-06 $X=11755 $Y=660 $dt=0
M13 11 13 gnd3i! gnd3i! ne3i L=3.5e-07 W=6.6e-07 AD=3.168e-13 AS=4.41226e-13 PD=2.28e-06 PS=2.48582e-06 $X=12750 $Y=890 $dt=0
M14 Q 13 gnd3i! gnd3i! ne3i L=3.5e-07 W=8.9e-07 AD=2.403e-13 AS=5.94987e-13 PD=1.43e-06 PS=3.35209e-06 $X=14380 $Y=660 $dt=0
M15 gnd3i! 13 Q gnd3i! ne3i L=3.5e-07 W=8.9e-07 AD=4.272e-13 AS=2.403e-13 PD=2.74e-06 PS=1.43e-06 $X=15270 $Y=660 $dt=0
M16 vdd3i! 17 19 vdd3i! pe3i L=3e-07 W=1e-06 AD=2.97674e-13 AS=4.8e-13 PD=1.7907e-06 PS=2.96e-06 $X=620 $Y=2670 $dt=1
M17 17 RN vdd3i! vdd3i! pe3i L=3e-07 W=7.2e-07 AD=3.136e-13 AS=2.14326e-13 PD=2.4e-06 PS=1.2893e-06 $X=1460 $Y=2670 $dt=1
M18 23 19 vdd3i! vdd3i! pe3i L=3e-07 W=4.2e-07 AD=5.25e-14 AS=5.1875e-13 PD=6.7e-07 PS=2.99e-06 $X=3080 $Y=3400 $dt=1
M19 17 15 23 vdd3i! pe3i L=3e-07 W=4.2e-07 AD=1.21617e-13 AS=5.25e-14 PD=9.13043e-07 PS=6.7e-07 $X=3630 $Y=3400 $dt=1
M20 22 9 17 vdd3i! pe3i L=3e-07 W=9.6e-07 AD=1.2e-13 AS=2.77983e-13 PD=1.21e-06 PS=2.08696e-06 $X=4470 $Y=2860 $dt=1
M21 vdd3i! D 22 vdd3i! pe3i L=3e-07 W=9.6e-07 AD=5.00229e-13 AS=1.2e-13 PD=2.34286e-06 PS=1.21e-06 $X=5020 $Y=2860 $dt=1
M22 15 C vdd3i! vdd3i! pe3i L=3e-07 W=7.2e-07 AD=4.56625e-13 AS=3.75171e-13 PD=2.86e-06 PS=1.75714e-06 $X=6060 $Y=2860 $dt=1
M23 vdd3i! 15 9 vdd3i! pe3i L=3e-07 W=7.2e-07 AD=3.92547e-13 AS=3.528e-13 PD=1.8586e-06 PS=2.42e-06 $X=7720 $Y=2670 $dt=1
M24 21 19 vdd3i! vdd3i! pe3i L=3e-07 W=1e-06 AD=1.25e-13 AS=5.45203e-13 PD=1.25e-06 PS=2.5814e-06 $X=8740 $Y=2820 $dt=1
M25 13 15 21 vdd3i! pe3i L=3e-07 W=1e-06 AD=2.96338e-13 AS=1.25e-13 PD=2.19718e-06 PS=1.25e-06 $X=9290 $Y=2820 $dt=1
M26 20 9 13 vdd3i! pe3i L=3e-07 W=4.2e-07 AD=5.25e-14 AS=1.24462e-13 PD=6.7e-07 PS=9.22817e-07 $X=10150 $Y=3235 $dt=1
M27 vdd3i! 11 20 vdd3i! pe3i L=3e-07 W=4.2e-07 AD=3.93439e-13 AS=5.25e-14 PD=1.64096e-06 PS=6.7e-07 $X=10700 $Y=3235 $dt=1
M28 vdd3i! RN 13 vdd3i! pe3i L=3e-07 W=7.2e-07 AD=6.74468e-13 AS=2.976e-13 PD=2.81307e-06 PS=2.4e-06 $X=11900 $Y=2410 $dt=1
M29 11 13 vdd3i! vdd3i! pe3i L=3e-07 W=1e-06 AD=4.8e-13 AS=9.36761e-13 PD=2.96e-06 PS=3.90704e-06 $X=12740 $Y=2410 $dt=1
M30 Q 13 vdd3i! vdd3i! pe3i L=3e-07 W=1.41e-06 AD=3.807e-13 AS=1.32083e-12 PD=1.95e-06 PS=5.50893e-06 $X=14440 $Y=2410 $dt=1
M31 vdd3i! 13 Q vdd3i! pe3i L=3e-07 W=1.41e-06 AD=8.802e-13 AS=3.807e-13 PD=4.56e-06 PS=1.95e-06 $X=15280 $Y=2410 $dt=1
.ends DFRRQJI3VX2

* +++++++++++++++++++++++++++++++++++++++++++++++++++++++++ *
* Sub cell: BUJI3VX8                                        *
* +++++++++++++++++++++++++++++++++++++++++++++++++++++++++ *
.subckt BUJI3VX8 vdd3i! gnd3i! A Q
*.DEVICECLIMB
** N=6 EP=4 FDC=19
M0 6 A gnd3i! gnd3i! ne3i L=3.5e-07 W=8.9e-07 AD=2.403e-13 AS=6.098e-13 PD=1.43e-06 PS=3.52e-06 $X=660 $Y=660 $dt=0
M1 gnd3i! A 6 gnd3i! ne3i L=3.5e-07 W=8.9e-07 AD=3.804e-13 AS=2.403e-13 PD=1.91e-06 PS=1.43e-06 $X=1550 $Y=660 $dt=0
M2 Q 6 gnd3i! gnd3i! ne3i L=3.5e-07 W=8.9e-07 AD=2.403e-13 AS=3.804e-13 PD=1.43e-06 PS=1.91e-06 $X=2570 $Y=660 $dt=0
M3 gnd3i! 6 Q gnd3i! ne3i L=3.5e-07 W=8.9e-07 AD=3.494e-13 AS=2.403e-13 PD=1.86e-06 PS=1.43e-06 $X=3460 $Y=660 $dt=0
M4 Q 6 gnd3i! gnd3i! ne3i L=3.5e-07 W=8.9e-07 AD=2.403e-13 AS=3.494e-13 PD=1.43e-06 PS=1.86e-06 $X=4430 $Y=660 $dt=0
M5 gnd3i! 6 Q gnd3i! ne3i L=3.5e-07 W=8.9e-07 AD=3.494e-13 AS=2.403e-13 PD=1.86e-06 PS=1.43e-06 $X=5320 $Y=660 $dt=0
M6 Q 6 gnd3i! gnd3i! ne3i L=3.5e-07 W=8.9e-07 AD=2.403e-13 AS=3.494e-13 PD=1.43e-06 PS=1.86e-06 $X=6290 $Y=660 $dt=0
M7 gnd3i! 6 Q gnd3i! ne3i L=3.5e-07 W=8.9e-07 AD=8.702e-13 AS=2.403e-13 PD=3.94e-06 PS=1.43e-06 $X=7180 $Y=660 $dt=0
M8 vdd3i! A 6 vdd3i! pe3i L=3.00566e-07 W=1.47006e-06 AD=2.83187e-13 AS=5.51013e-13 PD=1.86506e-06 PS=3.69506e-06 $X=620 $Y=2410 $dt=1
M9 6 A vdd3i! vdd3i! pe3i L=3.00566e-07 W=1.47006e-06 AD=2.61963e-13 AS=2.83187e-13 PD=1.87506e-06 PS=1.86506e-06 $X=1170 $Y=2410 $dt=1
M10 vdd3i! A 6 vdd3i! pe3i L=3.00566e-07 W=1.47006e-06 AD=2.83187e-13 AS=2.61963e-13 PD=1.86506e-06 PS=1.87506e-06 $X=2020 $Y=2410 $dt=1
M11 Q 6 vdd3i! vdd3i! pe3i L=3.00566e-07 W=1.47006e-06 AD=2.61963e-13 AS=2.83187e-13 PD=1.87506e-06 PS=1.86506e-06 $X=2570 $Y=2410 $dt=1
M12 vdd3i! 6 Q vdd3i! pe3i L=3.00566e-07 W=1.47006e-06 AD=2.83187e-13 AS=2.61963e-13 PD=1.86506e-06 PS=1.87506e-06 $X=3420 $Y=2410 $dt=1
M13 Q 6 vdd3i! vdd3i! pe3i L=3.00566e-07 W=1.47006e-06 AD=2.61963e-13 AS=2.83187e-13 PD=1.87506e-06 PS=1.86506e-06 $X=3970 $Y=2410 $dt=1
M14 vdd3i! 6 Q vdd3i! pe3i L=3.00566e-07 W=1.47006e-06 AD=2.83187e-13 AS=2.61963e-13 PD=1.86506e-06 PS=1.87506e-06 $X=4820 $Y=2410 $dt=1
M15 Q 6 vdd3i! vdd3i! pe3i L=3.00566e-07 W=1.47006e-06 AD=2.61963e-13 AS=2.83187e-13 PD=1.87506e-06 PS=1.86506e-06 $X=5370 $Y=2410 $dt=1
M16 vdd3i! 6 Q vdd3i! pe3i L=3.00566e-07 W=1.47006e-06 AD=2.83187e-13 AS=2.61963e-13 PD=1.86506e-06 PS=1.87506e-06 $X=6220 $Y=2410 $dt=1
M17 Q 6 vdd3i! vdd3i! pe3i L=3.00566e-07 W=1.47006e-06 AD=2.61963e-13 AS=2.83187e-13 PD=1.87506e-06 PS=1.86506e-06 $X=6770 $Y=2410 $dt=1
M18 vdd3i! 6 Q vdd3i! pe3i L=3.00566e-07 W=1.47006e-06 AD=5.79287e-13 AS=2.61963e-13 PD=3.69506e-06 PS=1.87506e-06 $X=7620 $Y=2410 $dt=1
.ends BUJI3VX8

* +++++++++++++++++++++++++++++++++++++++++++++++++++++++++ *
* Sub cell: DFRRQJI3VX4                                     *
* +++++++++++++++++++++++++++++++++++++++++++++++++++++++++ *
.subckt DFRRQJI3VX4 vdd3i! gnd3i! RN D C Q
*.DEVICECLIMB
** N=23 EP=6 FDC=36
M0 gnd3i! 17 19 gnd3i! ne3i L=3.5e-07 W=8.9e-07 AD=2.403e-13 AS=4.272e-13 PD=1.43e-06 PS=2.74e-06 $X=620 $Y=660 $dt=0
M1 10 RN gnd3i! gnd3i! ne3i L=3.5e-07 W=8.9e-07 AD=3.28952e-13 AS=2.403e-13 PD=2.36956e-06 PS=1.43e-06 $X=1510 $Y=660 $dt=0
M2 18 19 10 gnd3i! ne3i L=3.5e-07 W=4.2e-07 AD=5.25e-14 AS=1.55236e-13 PD=6.7e-07 PS=1.11822e-06 $X=2340 $Y=1390 $dt=0
M3 17 9 18 gnd3i! ne3i L=3.5e-07 W=4.2e-07 AD=1.134e-13 AS=5.25e-14 PD=9.6e-07 PS=6.7e-07 $X=2940 $Y=1390 $dt=0
M4 16 15 17 gnd3i! ne3i L=3.5e-07 W=4.2e-07 AD=5.25e-14 AS=1.134e-13 PD=6.7e-07 PS=9.6e-07 $X=3830 $Y=1390 $dt=0
M5 10 D 16 gnd3i! ne3i L=3.5e-07 W=4.2e-07 AD=2.835e-13 AS=5.25e-14 PD=2.19e-06 PS=6.7e-07 $X=4430 $Y=1390 $dt=0
M6 gnd3i! C 15 gnd3i! ne3i L=3.5e-07 W=4.2e-07 AD=1.659e-13 AS=2.016e-13 PD=1.21e-06 PS=1.8e-06 $X=6060 $Y=1390 $dt=0
M7 9 15 gnd3i! gnd3i! ne3i L=3.5e-07 W=4.2e-07 AD=2.95e-13 AS=1.659e-13 PD=2.23e-06 PS=1.21e-06 $X=7045 $Y=1390 $dt=0
M8 14 19 8 gnd3i! ne3i L=3.5e-07 W=4.2e-07 AD=5.25e-14 AS=2.016e-13 PD=6.7e-07 PS=1.8e-06 $X=8695 $Y=1020 $dt=0
M9 13 9 14 gnd3i! ne3i L=3.5e-07 W=4.2e-07 AD=1.134e-13 AS=5.25e-14 PD=9.6e-07 PS=6.7e-07 $X=9295 $Y=1020 $dt=0
M10 12 15 13 gnd3i! ne3i L=3.5e-07 W=4.2e-07 AD=5.25e-14 AS=1.134e-13 PD=6.7e-07 PS=9.6e-07 $X=10185 $Y=1020 $dt=0
M11 8 11 12 gnd3i! ne3i L=3.5e-07 W=4.2e-07 AD=1.55817e-13 AS=5.25e-14 PD=9.68244e-07 PS=6.7e-07 $X=10785 $Y=1020 $dt=0
M12 gnd3i! RN 8 gnd3i! ne3i L=3.5e-07 W=8.9e-07 AD=2.60325e-13 AS=3.30183e-13 PD=1.475e-06 PS=2.05176e-06 $X=11755 $Y=660 $dt=0
M13 11 13 gnd3i! gnd3i! ne3i L=3.5e-07 W=8.9e-07 AD=4.272e-13 AS=2.60325e-13 PD=2.74e-06 PS=1.475e-06 $X=12690 $Y=660 $dt=0
M14 Q 13 gnd3i! gnd3i! ne3i L=3.5e-07 W=8.9e-07 AD=2.403e-13 AS=4.272e-13 PD=1.43e-06 PS=2.74e-06 $X=14280 $Y=660 $dt=0
M15 gnd3i! 13 Q gnd3i! ne3i L=3.5e-07 W=8.9e-07 AD=2.403e-13 AS=2.403e-13 PD=1.43e-06 PS=1.43e-06 $X=15170 $Y=660 $dt=0
M16 Q 13 gnd3i! gnd3i! ne3i L=3.5e-07 W=8.9e-07 AD=2.403e-13 AS=2.403e-13 PD=1.43e-06 PS=1.43e-06 $X=16060 $Y=660 $dt=0
M17 gnd3i! 13 Q gnd3i! ne3i L=3.5e-07 W=8.9e-07 AD=4.272e-13 AS=2.403e-13 PD=2.74e-06 PS=1.43e-06 $X=16950 $Y=660 $dt=0
M18 vdd3i! 17 19 vdd3i! pe3i L=3e-07 W=1.41e-06 AD=4.54046e-13 AS=6.768e-13 PD=2.58169e-06 PS=3.78e-06 $X=620 $Y=2410 $dt=1
M19 17 RN vdd3i! vdd3i! pe3i L=3e-07 W=7.2e-07 AD=3.136e-13 AS=2.31854e-13 PD=2.4e-06 PS=1.31831e-06 $X=1460 $Y=2670 $dt=1
M20 23 19 vdd3i! vdd3i! pe3i L=3e-07 W=4.2e-07 AD=5.25e-14 AS=5.1875e-13 PD=6.7e-07 PS=2.99e-06 $X=3080 $Y=3400 $dt=1
M21 17 15 23 vdd3i! pe3i L=3e-07 W=4.2e-07 AD=1.21617e-13 AS=5.25e-14 PD=9.13043e-07 PS=6.7e-07 $X=3630 $Y=3400 $dt=1
M22 22 9 17 vdd3i! pe3i L=3e-07 W=9.6e-07 AD=1.2e-13 AS=2.77983e-13 PD=1.21e-06 PS=2.08696e-06 $X=4470 $Y=2860 $dt=1
M23 vdd3i! D 22 vdd3i! pe3i L=3e-07 W=9.6e-07 AD=5.00229e-13 AS=1.2e-13 PD=2.34286e-06 PS=1.21e-06 $X=5020 $Y=2860 $dt=1
M24 15 C vdd3i! vdd3i! pe3i L=3e-07 W=7.2e-07 AD=4.94875e-13 AS=3.75171e-13 PD=3.04e-06 PS=1.75714e-06 $X=6060 $Y=2860 $dt=1
M25 vdd3i! 15 9 vdd3i! pe3i L=3e-07 W=7.2e-07 AD=3.92547e-13 AS=3.528e-13 PD=1.8586e-06 PS=2.42e-06 $X=7720 $Y=2670 $dt=1
M26 21 19 vdd3i! vdd3i! pe3i L=3e-07 W=1e-06 AD=1.25e-13 AS=5.45203e-13 PD=1.25e-06 PS=2.5814e-06 $X=8740 $Y=2820 $dt=1
M27 13 15 21 vdd3i! pe3i L=3e-07 W=1e-06 AD=2.96338e-13 AS=1.25e-13 PD=2.19718e-06 PS=1.25e-06 $X=9290 $Y=2820 $dt=1
M28 20 9 13 vdd3i! pe3i L=3e-07 W=4.2e-07 AD=5.25e-14 AS=1.24462e-13 PD=6.7e-07 PS=9.22817e-07 $X=10150 $Y=3235 $dt=1
M29 vdd3i! 11 20 vdd3i! pe3i L=3e-07 W=4.2e-07 AD=2.90656e-13 AS=5.25e-14 PD=1.25671e-06 PS=6.7e-07 $X=10700 $Y=3235 $dt=1
M30 vdd3i! RN 13 vdd3i! pe3i L=3e-07 W=7.2e-07 AD=4.98268e-13 AS=2.976e-13 PD=2.15435e-06 PS=2.4e-06 $X=11900 $Y=2410 $dt=1
M31 11 13 vdd3i! vdd3i! pe3i L=3e-07 W=1.41e-06 AD=6.768e-13 AS=9.75775e-13 PD=3.78e-06 PS=4.21894e-06 $X=12740 $Y=2410 $dt=1
M32 Q 13 vdd3i! vdd3i! pe3i L=3e-07 W=1.41e-06 AD=3.807e-13 AS=1.1618e-12 PD=1.95e-06 PS=4.88e-06 $X=14480 $Y=2410 $dt=1
M33 vdd3i! 13 Q vdd3i! pe3i L=3e-07 W=1.41e-06 AD=3.807e-13 AS=3.807e-13 PD=1.95e-06 PS=1.95e-06 $X=15320 $Y=2410 $dt=1
M34 Q 13 vdd3i! vdd3i! pe3i L=3e-07 W=1.41e-06 AD=3.807e-13 AS=3.807e-13 PD=1.95e-06 PS=1.95e-06 $X=16160 $Y=2410 $dt=1
M35 vdd3i! 13 Q vdd3i! pe3i L=3e-07 W=1.41e-06 AD=6.768e-13 AS=3.807e-13 PD=3.78e-06 PS=1.95e-06 $X=17000 $Y=2410 $dt=1
.ends DFRRQJI3VX4

* +++++++++++++++++++++++++++++++++++++++++++++++++++++++++ *
* Sub cell: BUJI3VX1                                        *
* +++++++++++++++++++++++++++++++++++++++++++++++++++++++++ *
.subckt BUJI3VX1 vdd3i! gnd3i! A Q
*.DEVICECLIMB
** N=6 EP=4 FDC=4
M0 gnd3i! A 6 gnd3i! ne3i L=3.5e-07 W=4.2e-07 AD=2.44533e-13 AS=2.016e-13 PD=1.44667e-06 PS=1.8e-06 $X=620 $Y=1130 $dt=0
M1 Q 6 gnd3i! gnd3i! ne3i L=3.5e-07 W=6.6e-07 AD=2.88e-13 AS=3.84267e-13 PD=2.28e-06 PS=2.27333e-06 $X=1590 $Y=890 $dt=0
M2 vdd3i! A 6 vdd3i! pe3i L=3e-07 W=9e-07 AD=4.7931e-13 AS=4.32e-13 PD=1.95649e-06 PS=2.76e-06 $X=620 $Y=2410 $dt=1
M3 Q 6 vdd3i! vdd3i! pe3i L=3.00472e-07 W=1.45971e-06 AD=5.712e-13 AS=7.7739e-13 PD=3.70971e-06 PS=3.17322e-06 $X=1640 $Y=2410 $dt=1
.ends BUJI3VX1

* +++++++++++++++++++++++++++++++++++++++++++++++++++++++++ *
* Sub cell: NO3I2JI3VX1                                     *
* +++++++++++++++++++++++++++++++++++++++++++++++++++++++++ *
.subckt NO3I2JI3VX1 vdd3i! gnd3i! AN BN C Q
*.DEVICECLIMB
** N=10 EP=6 FDC=8
M0 8 AN 9 gnd3i! ne3i L=3.5e-07 W=4.8e-07 AD=6e-14 AS=2.304e-13 PD=7.3e-07 PS=1.92e-06 $X=620 $Y=1070 $dt=0
M1 gnd3i! BN 8 gnd3i! ne3i L=3.5e-07 W=4.8e-07 AD=1.98937e-13 AS=6e-14 PD=1.31617e-06 PS=7.3e-07 $X=1220 $Y=1070 $dt=0
M2 Q C gnd3i! gnd3i! ne3i L=3.5e-07 W=8.9e-07 AD=2.403e-13 AS=3.68863e-13 PD=1.43e-06 PS=2.4404e-06 $X=2060 $Y=660 $dt=0
M3 gnd3i! 9 Q gnd3i! ne3i L=3.5e-07 W=8.9e-07 AD=4.329e-13 AS=2.403e-13 PD=2.77e-06 PS=1.43e-06 $X=2950 $Y=660 $dt=0
M4 9 AN vdd3i! vdd3i! pe3i L=3e-07 W=7e-07 AD=1.89e-13 AS=5.71409e-13 PD=1.24e-06 PS=2.5758e-06 $X=560 $Y=2590 $dt=1
M5 vdd3i! BN 9 vdd3i! pe3i L=3e-07 W=7e-07 AD=5.71409e-13 AS=1.89e-13 PD=2.5758e-06 PS=1.24e-06 $X=1400 $Y=2590 $dt=1
M6 10 C vdd3i! vdd3i! pe3i L=3e-07 W=1.41e-06 AD=1.7625e-13 AS=1.15098e-12 PD=1.66e-06 PS=5.1884e-06 $X=2330 $Y=2410 $dt=1
M7 Q 9 10 vdd3i! pe3i L=3e-07 W=1.41e-06 AD=8.46e-13 AS=1.7625e-13 PD=4.02e-06 PS=1.66e-06 $X=2880 $Y=2410 $dt=1
.ends NO3I2JI3VX1

* +++++++++++++++++++++++++++++++++++++++++++++++++++++++++ *
* Sub cell: FAJI3VX1                                        *
* +++++++++++++++++++++++++++++++++++++++++++++++++++++++++ *
.subckt FAJI3VX1 vdd3i! gnd3i! S CI B A CO
*.DEVICECLIMB
** N=20 EP=7 FDC=28
M0 gnd3i! 12 S gnd3i! ne3i L=3.5e-07 W=8.9e-07 AD=4.361e-13 AS=4.272e-13 PD=2.76e-06 PS=2.74e-06 $X=620 $Y=660 $dt=0
M1 15 CI 12 gnd3i! ne3i L=3.5e-07 W=5.9e-07 AD=7.375e-14 AS=2.832e-13 PD=8.4e-07 PS=2.14e-06 $X=2220 $Y=960 $dt=0
M2 14 B 15 gnd3i! ne3i L=3.5e-07 W=5.9e-07 AD=7.375e-14 AS=7.375e-14 PD=8.4e-07 PS=8.4e-07 $X=2820 $Y=960 $dt=0
M3 gnd3i! A 14 gnd3i! ne3i L=3.5e-07 W=5.9e-07 AD=2.34033e-13 AS=7.375e-14 PD=1.52158e-06 PS=8.4e-07 $X=3420 $Y=960 $dt=0
M4 13 CI gnd3i! gnd3i! ne3i L=3.5e-07 W=5.5e-07 AD=1.485e-13 AS=2.18167e-13 PD=1.09e-06 PS=1.41842e-06 $X=4350 $Y=660 $dt=0
M5 gnd3i! A 13 gnd3i! ne3i L=3.5e-07 W=5.5e-07 AD=2.5017e-13 AS=1.485e-13 PD=1.58058e-06 PS=1.09e-06 $X=5240 $Y=660 $dt=0
M6 13 B gnd3i! gnd3i! ne3i L=3.5e-07 W=4.8e-07 AD=1.296e-13 AS=2.1833e-13 PD=1.02e-06 PS=1.37942e-06 $X=6220 $Y=960 $dt=0
M7 12 10 13 gnd3i! ne3i L=3.5e-07 W=4.8e-07 AD=2.304e-13 AS=1.296e-13 PD=1.92e-06 PS=1.02e-06 $X=7110 $Y=960 $dt=0
M8 gnd3i! 10 CO gnd3i! ne3i L=3.5e-07 W=5.9e-07 AD=3.345e-13 AS=2.832e-13 PD=1.73e-06 PS=2.14e-06 $X=8700 $Y=960 $dt=0
M9 11 A gnd3i! gnd3i! ne3i L=3.5e-07 W=5.9e-07 AD=7.375e-14 AS=3.345e-13 PD=8.4e-07 PS=1.73e-06 $X=9830 $Y=960 $dt=0
M10 10 B 11 gnd3i! ne3i L=3.5e-07 W=5.9e-07 AD=1.593e-13 AS=7.375e-14 PD=1.13e-06 PS=8.4e-07 $X=10430 $Y=960 $dt=0
M11 9 CI 10 gnd3i! ne3i L=3.5e-07 W=5.9e-07 AD=1.593e-13 AS=1.593e-13 PD=1.13e-06 PS=1.13e-06 $X=11320 $Y=960 $dt=0
M12 gnd3i! B 9 gnd3i! ne3i L=3.5e-07 W=5.9e-07 AD=4.382e-13 AS=1.593e-13 PD=1.95e-06 PS=1.13e-06 $X=12210 $Y=960 $dt=0
M13 9 A gnd3i! gnd3i! ne3i L=3.5e-07 W=5.9e-07 AD=3.068e-13 AS=4.382e-13 PD=2.22e-06 PS=1.95e-06 $X=13550 $Y=960 $dt=0
M14 vdd3i! 12 S vdd3i! pe3i L=3e-07 W=1.41e-06 AD=7.6395e-13 AS=7.1205e-13 PD=4.52213e-06 PS=3.83e-06 $X=645 $Y=2410 $dt=1
M15 vdd3i! CI 17 vdd3i! pe3i L=3e-07 W=1.03e-06 AD=4.8155e-13 AS=4.79437e-13 PD=2.35e-06 PS=3.03778e-06 $X=2125 $Y=2490 $dt=1
M16 17 B vdd3i! vdd3i! pe3i L=3e-07 W=1.03e-06 AD=3.0385e-13 AS=4.8155e-13 PD=1.62e-06 PS=2.35e-06 $X=3095 $Y=2490 $dt=1
M17 vdd3i! A 17 vdd3i! pe3i L=3e-07 W=1.03e-06 AD=4.1015e-13 AS=3.0385e-13 PD=2.01e-06 PS=1.62e-06 $X=3985 $Y=2490 $dt=1
M18 20 A vdd3i! vdd3i! pe3i L=3e-07 W=1.03e-06 AD=1.545e-13 AS=4.1015e-13 PD=1.33e-06 PS=2.01e-06 $X=4955 $Y=2490 $dt=1
M19 19 B 20 vdd3i! pe3i L=3e-07 W=1.03e-06 AD=1.545e-13 AS=1.545e-13 PD=1.33e-06 PS=1.33e-06 $X=5555 $Y=2490 $dt=1
M20 12 CI 19 vdd3i! pe3i L=3e-07 W=1.03e-06 AD=3.0385e-13 AS=1.545e-13 PD=1.62e-06 PS=1.33e-06 $X=6155 $Y=2490 $dt=1
M21 17 10 12 vdd3i! pe3i L=3e-07 W=1.03e-06 AD=6.9155e-13 AS=3.0385e-13 PD=3.77e-06 PS=1.62e-06 $X=7045 $Y=2490 $dt=1
M22 vdd3i! 10 CO vdd3i! pe3i L=3e-07 W=1.11e-06 AD=4.54624e-13 AS=5.6055e-13 PD=2.27286e-06 PS=3.23e-06 $X=8675 $Y=2410 $dt=1
M23 16 A vdd3i! vdd3i! pe3i L=3e-07 W=9.9e-07 AD=2.9205e-13 AS=4.05476e-13 PD=1.58e-06 PS=2.02714e-06 $X=9645 $Y=2530 $dt=1
M24 vdd3i! B 16 vdd3i! pe3i L=3e-07 W=9.9e-07 AD=5.763e-13 AS=2.9205e-13 PD=3.59e-06 PS=1.58e-06 $X=10535 $Y=2530 $dt=1
M25 10 CI 16 vdd3i! pe3i L=3e-07 W=1e-06 AD=2.95e-13 AS=4.65e-13 PD=1.59e-06 PS=3.01e-06 $X=12085 $Y=2520 $dt=1
M26 18 B 10 vdd3i! pe3i L=3e-07 W=1e-06 AD=1.5e-13 AS=2.95e-13 PD=1.3e-06 PS=1.59e-06 $X=12975 $Y=2520 $dt=1
M27 vdd3i! A 18 vdd3i! pe3i L=3e-07 W=1e-06 AD=8.18e-13 AS=1.5e-13 PD=4.39e-06 PS=1.3e-06 $X=13575 $Y=2520 $dt=1
.ends FAJI3VX1

* +++++++++++++++++++++++++++++++++++++++++++++++++++++++++ *
* Sub cell: OR2JI3VX0                                       *
* +++++++++++++++++++++++++++++++++++++++++++++++++++++++++ *
.subckt OR2JI3VX0 vdd3i! gnd3i! A B Q
*.DEVICECLIMB
** N=8 EP=5 FDC=6
M0 7 A gnd3i! gnd3i! ne3i L=3.5e-07 W=4.2e-07 AD=1.134e-13 AS=5.75467e-13 PD=9.6e-07 PS=2.95333e-06 $X=530 $Y=1130 $dt=0
M1 gnd3i! B 7 gnd3i! ne3i L=3.5e-07 W=4.2e-07 AD=5.75467e-13 AS=1.134e-13 PD=2.95333e-06 PS=9.6e-07 $X=1420 $Y=1130 $dt=0
M2 Q 7 gnd3i! gnd3i! ne3i L=3.5e-07 W=4.2e-07 AD=2.016e-13 AS=5.75467e-13 PD=1.8e-06 PS=2.95333e-06 $X=2390 $Y=1130 $dt=0
M3 8 A 7 vdd3i! pe3i L=3e-07 W=8.5e-07 AD=1.0625e-13 AS=4.08e-13 PD=1.1e-06 PS=2.66e-06 $X=620 $Y=2410 $dt=1
M4 vdd3i! B 8 vdd3i! pe3i L=3e-07 W=8.5e-07 AD=8.28174e-13 AS=1.0625e-13 PD=2.99419e-06 PS=1.1e-06 $X=1170 $Y=2410 $dt=1
M5 Q 7 vdd3i! vdd3i! pe3i L=3e-07 W=7e-07 AD=3.36e-13 AS=6.82026e-13 PD=2.36e-06 PS=2.46581e-06 $X=2440 $Y=2410 $dt=1
.ends OR2JI3VX0

* +++++++++++++++++++++++++++++++++++++++++++++++++++++++++ *
* Sub cell: NA3I1JI3VX1                                     *
* +++++++++++++++++++++++++++++++++++++++++++++++++++++++++ *
.subckt NA3I1JI3VX1 vdd3i! gnd3i! AN Q B C
*.DEVICECLIMB
** N=10 EP=6 FDC=8
M0 gnd3i! AN 10 gnd3i! ne3i L=3.5e-07 W=4.2e-07 AD=2.40779e-13 AS=2.016e-13 PD=1.24397e-06 PS=1.8e-06 $X=620 $Y=660 $dt=0
M1 9 10 gnd3i! gnd3i! ne3i L=3.5e-07 W=8.9e-07 AD=1.26825e-13 AS=5.10221e-13 PD=1.175e-06 PS=2.63603e-06 $X=1670 $Y=660 $dt=0
M2 8 B 9 gnd3i! ne3i L=3.5e-07 W=8.9e-07 AD=1.31275e-13 AS=1.26825e-13 PD=1.185e-06 PS=1.175e-06 $X=2305 $Y=660 $dt=0
M3 Q C 8 gnd3i! ne3i L=3.5e-07 W=8.9e-07 AD=4.272e-13 AS=1.31275e-13 PD=2.74e-06 PS=1.185e-06 $X=2950 $Y=660 $dt=0
M4 vdd3i! AN 10 vdd3i! pe3i L=3e-07 W=7e-07 AD=4.82246e-13 AS=3.36e-13 PD=2.26063e-06 PS=2.36e-06 $X=620 $Y=2410 $dt=1
M5 vdd3i! 10 Q vdd3i! pe3i L=3.00059e-07 W=1.00314e-06 AD=6.91085e-13 AS=2.195e-13 PD=3.2396e-06 PS=1.46314e-06 $X=1430 $Y=2410 $dt=1
M6 Q B vdd3i! vdd3i! pe3i L=3.00059e-07 W=1.00314e-06 AD=2.195e-13 AS=6.91085e-13 PD=1.46314e-06 PS=3.2396e-06 $X=2270 $Y=2410 $dt=1
M7 Q C vdd3i! vdd3i! pe3i L=3.00059e-07 W=1.00314e-06 AD=4.232e-13 AS=6.91085e-13 PD=2.85314e-06 PS=3.2396e-06 $X=3000 $Y=2410 $dt=1
.ends NA3I1JI3VX1

* +++++++++++++++++++++++++++++++++++++++++++++++++++++++++ *
* Sub cell: DLY2JI3VX1                                      *
* +++++++++++++++++++++++++++++++++++++++++++++++++++++++++ *
.subckt DLY2JI3VX1 vdd3i! gnd3i! A Q
*.DEVICECLIMB
** N=12 EP=4 FDC=12
M0 gnd3i! A 10 gnd3i! ne3i L=3.5e-07 W=4.2e-07 AD=3.577e-13 AS=2.016e-13 PD=1.79e-06 PS=1.8e-06 $X=620 $Y=660 $dt=0
M1 8 10 gnd3i! gnd3i! ne3i L=8e-07 W=4.2e-07 AD=2.548e-13 AS=3.577e-13 PD=1.7e-06 PS=1.79e-06 $X=1990 $Y=660 $dt=0
M2 8 10 9 gnd3i! ne3i L=8e-07 W=4.2e-07 AD=2.548e-13 AS=2.016e-13 PD=1.7e-06 PS=1.8e-06 $X=1990 $Y=1360 $dt=0
M3 gnd3i! 9 7 gnd3i! ne3i L=1e-06 W=4.2e-07 AD=3.42444e-13 AS=2.1e-13 PD=1.66718e-06 PS=1.62e-06 $X=3950 $Y=660 $dt=0
M4 6 9 7 gnd3i! ne3i L=1e-06 W=4.2e-07 AD=2.10588e-13 AS=2.1e-13 PD=1.81778e-06 PS=1.62e-06 $X=3950 $Y=1360 $dt=0
M5 Q 6 gnd3i! gnd3i! ne3i L=3.5e-07 W=8.9e-07 AD=4.272e-13 AS=7.25656e-13 PD=2.74e-06 PS=3.53282e-06 $X=6310 $Y=660 $dt=0
M6 vdd3i! A 10 vdd3i! pe3i L=3e-07 W=7e-07 AD=5.42937e-13 AS=3.535e-13 PD=2.69375e-06 PS=2.41e-06 $X=645 $Y=3120 $dt=1
M7 12 10 9 vdd3i! pe3i L=7.4e-07 W=4.2e-07 AD=2.8095e-13 AS=2.0035e-13 PD=1.785e-06 PS=1.77071e-06 $X=2050 $Y=2640 $dt=1
M8 12 10 vdd3i! vdd3i! pe3i L=7.4e-07 W=4.2e-07 AD=2.8095e-13 AS=3.25762e-13 PD=1.785e-06 PS=1.61625e-06 $X=2050 $Y=3400 $dt=1
M9 6 9 11 vdd3i! pe3i L=1e-06 W=4.2e-07 AD=2.856e-13 AS=2.479e-13 PD=2.2e-06 PS=1.715e-06 $X=4030 $Y=2660 $dt=1
M10 vdd3i! 9 11 vdd3i! pe3i L=1e-06 W=4.2e-07 AD=2.62018e-13 AS=2.479e-13 PD=1.40689e-06 PS=1.715e-06 $X=4030 $Y=3400 $dt=1
M11 Q 6 vdd3i! vdd3i! pe3i L=3e-07 W=1.41e-06 AD=7.1205e-13 AS=8.79632e-13 PD=3.83e-06 PS=4.72311e-06 $X=6335 $Y=2410 $dt=1
.ends DLY2JI3VX1

* +++++++++++++++++++++++++++++++++++++++++++++++++++++++++ *
* Sub cell: NA3JI3VX0                                       *
* +++++++++++++++++++++++++++++++++++++++++++++++++++++++++ *
.subckt NA3JI3VX0 vdd3i! gnd3i! C Q B A
*.DEVICECLIMB
** N=9 EP=6 FDC=6
M0 9 C gnd3i! gnd3i! ne3i L=3.5e-07 W=7e-07 AD=8.75e-14 AS=5.605e-13 PD=9.5e-07 PS=3.52e-06 $X=630 $Y=850 $dt=0
M1 8 B 9 gnd3i! ne3i L=3.5e-07 W=7e-07 AD=8.75e-14 AS=8.75e-14 PD=9.5e-07 PS=9.5e-07 $X=1230 $Y=850 $dt=0
M2 Q A 8 gnd3i! ne3i L=3.5e-07 W=7e-07 AD=3.36e-13 AS=8.75e-14 PD=2.36e-06 PS=9.5e-07 $X=1830 $Y=850 $dt=0
M3 Q C vdd3i! vdd3i! pe3i L=3e-07 W=7e-07 AD=1.89e-13 AS=5.76467e-13 PD=1.24e-06 PS=3.21333e-06 $X=470 $Y=2580 $dt=1
M4 vdd3i! B Q vdd3i! pe3i L=3e-07 W=7e-07 AD=5.76467e-13 AS=1.89e-13 PD=3.21333e-06 PS=1.24e-06 $X=1310 $Y=2580 $dt=1
M5 Q A vdd3i! vdd3i! pe3i L=3e-07 W=7e-07 AD=4.708e-13 AS=5.76467e-13 PD=3.92e-06 PS=3.21333e-06 $X=2040 $Y=2470 $dt=1
.ends NA3JI3VX0

* +++++++++++++++++++++++++++++++++++++++++++++++++++++++++ *
* Sub cell: ON21JI3VX1                                      *
* +++++++++++++++++++++++++++++++++++++++++++++++++++++++++ *
.subckt ON21JI3VX1 vdd3i! gnd3i! B A Q C
*.DEVICECLIMB
** N=9 EP=6 FDC=6
M0 gnd3i! B 8 gnd3i! ne3i L=3.4958e-07 W=8.92071e-07 AD=2.40125e-13 AS=4.24712e-13 PD=1.43207e-06 PS=2.73707e-06 $X=615 $Y=660 $dt=0
M1 8 A gnd3i! gnd3i! ne3i L=3.4958e-07 W=8.92071e-07 AD=2.37987e-13 AS=2.40125e-13 PD=1.42707e-06 PS=1.43207e-06 $X=1505 $Y=660 $dt=0
M2 Q C 8 gnd3i! ne3i L=3.4958e-07 W=8.92071e-07 AD=4.24712e-13 AS=2.37987e-13 PD=2.73707e-06 PS=1.42707e-06 $X=2395 $Y=660 $dt=0
M3 9 B vdd3i! vdd3i! pe3i L=3e-07 W=1.41e-06 AD=1.7625e-13 AS=9.418e-13 PD=1.66e-06 PS=4.63e-06 $X=695 $Y=2410 $dt=1
M4 Q A 9 vdd3i! pe3i L=3e-07 W=1.41e-06 AD=4.75706e-13 AS=1.7625e-13 PD=2.44322e-06 PS=1.66e-06 $X=1245 $Y=2410 $dt=1
M5 vdd3i! C Q vdd3i! pe3i L=3e-07 W=9.85e-07 AD=1.1721e-12 AS=3.32319e-13 PD=4.94e-06 PS=1.70678e-06 $X=2210 $Y=2410 $dt=1
.ends ON21JI3VX1

* +++++++++++++++++++++++++++++++++++++++++++++++++++++++++ *
* Sub cell: OA21JI3VX1                                      *
* +++++++++++++++++++++++++++++++++++++++++++++++++++++++++ *
.subckt OA21JI3VX1 vdd3i! gnd3i! C A B Q
*.DEVICECLIMB
** N=10 EP=6 FDC=8
M0 8 C 9 gnd3i! ne3i L=3.5e-07 W=5.4e-07 AD=3.313e-13 AS=2.97e-13 PD=1.95333e-06 PS=2.18e-06 $X=690 $Y=660 $dt=0
M1 8 A gnd3i! gnd3i! ne3i L=3.5e-07 W=5.4e-07 AD=3.313e-13 AS=2.592e-13 PD=1.95333e-06 PS=2.04e-06 $X=1620 $Y=1480 $dt=0
M2 gnd3i! B 8 gnd3i! ne3i L=3.5e-07 W=5.4e-07 AD=2.92808e-13 AS=3.313e-13 PD=1.47273e-06 PS=1.95333e-06 $X=2450 $Y=1010 $dt=0
M3 Q 9 gnd3i! gnd3i! ne3i L=3.5e-07 W=8.9e-07 AD=4.272e-13 AS=4.82592e-13 PD=2.74e-06 PS=2.42727e-06 $X=3510 $Y=660 $dt=0
M4 9 C vdd3i! vdd3i! pe3i L=3e-07 W=8.5e-07 AD=2.295e-13 AS=1.03315e-12 PD=1.39e-06 PS=4.25e-06 $X=975 $Y=2880 $dt=1
M5 10 A 9 vdd3i! pe3i L=3e-07 W=8.5e-07 AD=1.0625e-13 AS=2.295e-13 PD=1.1e-06 PS=1.39e-06 $X=1815 $Y=2880 $dt=1
M6 vdd3i! B 10 vdd3i! pe3i L=3e-07 W=8.5e-07 AD=4.77448e-13 AS=1.0625e-13 PD=1.94425e-06 PS=1.1e-06 $X=2365 $Y=2880 $dt=1
M7 Q 9 vdd3i! vdd3i! pe3i L=3e-07 W=1.41e-06 AD=6.768e-13 AS=7.92002e-13 PD=3.78e-06 PS=3.22516e-06 $X=3560 $Y=2410 $dt=1
.ends OA21JI3VX1

* +++++++++++++++++++++++++++++++++++++++++++++++++++++++++ *
* Sub cell: BUJI3VX3                                        *
* +++++++++++++++++++++++++++++++++++++++++++++++++++++++++ *
.subckt BUJI3VX3 vdd3i! gnd3i! A Q
*.DEVICECLIMB
** N=6 EP=4 FDC=7