************************************************************************
* auCdl Netlist:
* 
* Library Name:  ASKA_DIG2
* Top Cell Name: aska_dig_lvs
* View Name:     schematic
* Netlisted on:  Sep  9 14:36:54 2024
************************************************************************

*.BIPOLAR
*.RESI = 2000 
*.RESVAL
*.CAPVAL
*.DIOPERI
*.DIOAREA
*.EQUATION
*.LDD
*.SCALE METER
.PARAM



************************************************************************
* Library Name: GATES_JI3V
* Cell Name:    invrji3v
* View Name:    schematic
************************************************************************

.SUBCKT invrji3v in out inh_ground_gnd3i inh_power_vdd3i
*.PININFO in:I out:O inh_ground_gnd3i:B inh_power_vdd3i:B
MMP1 out in inh_power_vdd3i inh_power_vdd3i PE3I W=GT_PUW L=GT_PUL M=1.0 
+ AD=4.8e-07*(GT_PUW) AS=4.8e-07*(GT_PUW) PD=2*(4.8e-07+(GT_PUW)) 
+ PS=2.0*(4.8e-07+(GT_PUW)) NRD=2.7e-07/(GT_PUW) NRS=2.7e-07/(GT_PUW)
MMN1 out in inh_ground_gnd3i inh_ground_gnd3i NE3I W=GT_PDW L=GT_PDL M=1.0 
+ AD=4.8e-07*(GT_PDW) AS=4.8e-07*(GT_PDW) PD=2*(4.8e-07+(GT_PDW)) 
+ PS=2.0*(4.8e-07+(GT_PDW)) NRD=2.7e-07/(GT_PDW) NRS=2.7e-07/(GT_PDW)
.ENDS

************************************************************************
* Library Name: GATES_JI3V
* Cell Name:    nand2ji3v
* View Name:    schematic
************************************************************************

.SUBCKT nand2ji3v a b out inh_ground_gnd3i inh_power_vdd3i
*.PININFO a:I b:I out:O inh_ground_gnd3i:B inh_power_vdd3i:B
MMP1 out a inh_power_vdd3i inh_power_vdd3i PE3I W=GT_PUW L=GT_PUL M=1.0 
+ AD=4.8e-07*(GT_PUW) AS=4.8e-07*(GT_PUW) PD=2*(4.8e-07+(GT_PUW)) 
+ PS=2.0*(4.8e-07+(GT_PUW)) NRD=2.7e-07/(GT_PUW) NRS=2.7e-07/(GT_PUW)
MMP2 out b inh_power_vdd3i inh_power_vdd3i PE3I W=GT_PUW L=GT_PUL M=1.0 
+ AD=4.8e-07*(GT_PUW) AS=4.8e-07*(GT_PUW) PD=2*(4.8e-07+(GT_PUW)) 
+ PS=2.0*(4.8e-07+(GT_PUW)) NRD=2.7e-07/(GT_PUW) NRS=2.7e-07/(GT_PUW)
MMN1 out a net25 inh_ground_gnd3i NE3I W=GT_PDW L=GT_PDL M=1.0 
+ AD=4.8e-07*(GT_PDW) AS=4.8e-07*(GT_PDW) PD=2*(4.8e-07+(GT_PDW)) 
+ PS=2.0*(4.8e-07+(GT_PDW)) NRD=2.7e-07/(GT_PDW) NRS=2.7e-07/(GT_PDW)
MMN2 net25 b inh_ground_gnd3i inh_ground_gnd3i NE3I W=GT_PDW L=GT_PDL M=1.0 
+ AD=4.8e-07*(GT_PDW) AS=4.8e-07*(GT_PDW) PD=2*(4.8e-07+(GT_PDW)) 
+ PS=2.0*(4.8e-07+(GT_PDW)) NRD=2.7e-07/(GT_PDW) NRS=2.7e-07/(GT_PDW)
.ENDS

************************************************************************
* Library Name: D_CELLS_JI3V
* Cell Name:    AND2JI3VX0
* View Name:    cmos_sch
************************************************************************

.SUBCKT AND2JI3VX0 A B Q inh_ground_gnd3i inh_power_vdd3i
*.PININFO A:I B:I Q:O inh_ground_gnd3i:B inh_power_vdd3i:B
Xinvr_1 net10 Q inh_ground_gnd3i inh_power_vdd3i / invrji3v GT_PDL=350.00n 
+ GT_PDW=420.00n GT_PUL=300.00n GT_PUW=700.00n
Xnand2_1 A B net10 inh_ground_gnd3i inh_power_vdd3i / nand2ji3v GT_PDL=350.00n 
+ GT_PDW=560.00n GT_PUL=300.00n GT_PUW=700.00n
.ENDS

************************************************************************
* Library Name: D_CELLS_JI3V
* Cell Name:    DFRRQJI3VX1
* View Name:    cmos_sch
************************************************************************

.SUBCKT DFRRQJI3VX1 C D Q RN inh_ground_gnd3i inh_power_vdd3i
*.PININFO C:I D:I RN:I Q:O inh_ground_gnd3i:B inh_power_vdd3i:B
MM25 MQIB RN inh_power_vdd3i inh_power_vdd3i PE3I W=720.0n L=300n M=1.0 
+ AD=3.456e-13 AS=3.456e-13 PD=2.4e-06 PS=2.4e-06 NRD=0.375 NRS=0.375
MM24 MQIB CI net227 inh_power_vdd3i PE3I W=960.0n L=300n M=1.0 AD=4.608e-13 
+ AS=4.608e-13 PD=2.88e-06 PS=2.88e-06 NRD=0.28125 NRS=0.28125
MM58 SQIB RN inh_power_vdd3i inh_power_vdd3i PE3I W=720.0n L=300n M=1.0 
+ AD=3.456e-13 AS=3.456e-13 PD=2.4e-06 PS=2.4e-06 NRD=0.375 NRS=0.375
MM56 MQI MQIB inh_power_vdd3i inh_power_vdd3i PE3I W=720.0n L=300n M=1.0 
+ AD=3.456e-13 AS=3.456e-13 PD=2.4e-06 PS=2.4e-06 NRD=0.375 NRS=0.375
MM30 net183 MQI inh_power_vdd3i inh_power_vdd3i PE3I W=1u L=300n M=1.0 
+ AD=4.8e-13 AS=4.8e-13 PD=2.96e-06 PS=2.96e-06 NRD=0.27 NRS=0.27
MM23 net227 D inh_power_vdd3i inh_power_vdd3i PE3I W=960.0n L=300n M=1.0 
+ AD=4.608e-13 AS=4.608e-13 PD=2.88e-06 PS=2.88e-06 NRD=0.28125 NRS=0.28125
MM59 net033 SQIB inh_power_vdd3i inh_power_vdd3i PE3I W=720.0n L=300n M=1.0 
+ AD=3.456e-13 AS=3.456e-13 PD=2.4e-06 PS=2.4e-06 NRD=0.375 NRS=0.375
MM36 net191 net033 inh_power_vdd3i inh_power_vdd3i PE3I W=420.0n L=300n M=1.0 
+ AD=2.016e-13 AS=2.016e-13 PD=1.8e-06 PS=1.8e-06 NRD=0.642857 NRS=0.642857
MM35 SQIB CI net191 inh_power_vdd3i PE3I W=420.0n L=300n M=1.0 AD=2.016e-13 
+ AS=2.016e-13 PD=1.8e-06 PS=1.8e-06 NRD=0.642857 NRS=0.642857
MM34Zf MQIB CIB net187 inh_power_vdd3i PE3I W=420.0n L=300n M=1.0 AD=2.016e-13 
+ AS=2.016e-13 PD=1.8e-06 PS=1.8e-06 NRD=0.642857 NRS=0.642857
MM33 SQIB CIB net183 inh_power_vdd3i PE3I W=1u L=300n M=1.0 AD=4.8e-13 
+ AS=4.8e-13 PD=2.96e-06 PS=2.96e-06 NRD=0.27 NRS=0.27
MM28 net187 MQI inh_power_vdd3i inh_power_vdd3i PE3I W=420.0n L=300n M=1.0 
+ AD=2.016e-13 AS=2.016e-13 PD=1.8e-06 PS=1.8e-06 NRD=0.642857 NRS=0.642857
Xinvr_3 SQIB Q inh_ground_gnd3i inh_power_vdd3i / invrji3v GT_PDL=350.00n 
+ GT_PDW=890.00n GT_PUL=300.00n GT_PUW=1.41u
Xinvr_2 CIB CI inh_ground_gnd3i inh_power_vdd3i / invrji3v GT_PDL=350.00n 
+ GT_PDW=420.00n GT_PUL=300.00n GT_PUW=720.00n
Xinvr_1 C CIB inh_ground_gnd3i inh_power_vdd3i / invrji3v GT_PDL=350.00n 
+ GT_PDW=420.00n GT_PUL=300.00n GT_PUW=720.00n
MM18 MQIB CIB net165 inh_ground_gnd3i NE3I W=420.0n L=350.0n M=1.0 
+ AD=2.016e-13 AS=2.016e-13 PD=1.8e-06 PS=1.8e-06 NRD=0.642857 NRS=0.642857
MM17 MQI MQIB inh_ground_gnd3i inh_ground_gnd3i NE3I W=420.0n L=350.0n M=1.0 
+ AD=2.016e-13 AS=2.016e-13 PD=1.8e-06 PS=1.8e-06 NRD=0.642857 NRS=0.642857
MM15 net165 D net168 inh_ground_gnd3i NE3I W=420.0n L=350.0n M=1.0 
+ AD=2.016e-13 AS=2.016e-13 PD=1.8e-06 PS=1.8e-06 NRD=0.642857 NRS=0.642857
MM46 SQIB CI net133 inh_ground_gnd3i NE3I W=420.0n L=350.0n M=1.0 AD=2.016e-13 
+ AS=2.016e-13 PD=1.8e-06 PS=1.8e-06 NRD=0.642857 NRS=0.642857
MM19 MQIB CI net125 inh_ground_gnd3i NE3I W=420.0n L=350.0n M=1.0 AD=2.016e-13 
+ AS=2.016e-13 PD=1.8e-06 PS=1.8e-06 NRD=0.642857 NRS=0.642857
MM51 SQIB CIB net145 inh_ground_gnd3i NE3I W=420.0n L=350.0n M=1.0 
+ AD=2.016e-13 AS=2.016e-13 PD=1.8e-06 PS=1.8e-06 NRD=0.642857 NRS=0.642857
MM50 net145 net033 net136 inh_ground_gnd3i NE3I W=420.0n L=350.0n M=1.0 
+ AD=2.016e-13 AS=2.016e-13 PD=1.8e-06 PS=1.8e-06 NRD=0.642857 NRS=0.642857
MM49q net033 SQIB inh_ground_gnd3i inh_ground_gnd3i NE3I W=420.0n L=350.0n 
+ M=1.0 AD=2.016e-13 AS=2.016e-13 PD=1.8e-06 PS=1.8e-06 NRD=0.642857 
+ NRS=0.642857
MM48 net136 RN inh_ground_gnd3i inh_ground_gnd3i NE3I W=890.0n L=350.0n M=1.0 
+ AD=4.272e-13 AS=4.272e-13 PD=2.74e-06 PS=2.74e-06 NRD=0.303371 NRS=0.303371
MM47 net133 MQI net136 inh_ground_gnd3i NE3I W=420.0n L=350.0n M=1.0 
+ AD=2.016e-13 AS=2.016e-13 PD=1.8e-06 PS=1.8e-06 NRD=0.642857 NRS=0.642857
MM44 net168 RN inh_ground_gnd3i inh_ground_gnd3i NE3I W=890.0n L=350.0n M=1.0 
+ AD=4.272e-13 AS=4.272e-13 PD=2.74e-06 PS=2.74e-06 NRD=0.303371 NRS=0.303371
MM61 net125 MQI net168 inh_ground_gnd3i NE3I W=420.0n L=350.0n M=1.0 
+ AD=2.016e-13 AS=2.016e-13 PD=1.8e-06 PS=1.8e-06 NRD=0.642857 NRS=0.642857
.ENDS

************************************************************************
* Library Name: GATES_JI3V
* Cell Name:    nor2ji3v
* View Name:    schematic
************************************************************************

.SUBCKT nor2ji3v a b out inh_ground_gnd3i inh_power_vdd3i
*.PININFO a:I b:I out:O inh_ground_gnd3i:B inh_power_vdd3i:B
MMP1 out a net32 inh_power_vdd3i PE3I W=GT_PUW L=GT_PUL M=1.0 
+ AD=4.8e-07*(GT_PUW) AS=4.8e-07*(GT_PUW) PD=2*(4.8e-07+(GT_PUW)) 
+ PS=2.0*(4.8e-07+(GT_PUW)) NRD=2.7e-07/(GT_PUW) NRS=2.7e-07/(GT_PUW)
MMP2 net32 b inh_power_vdd3i inh_power_vdd3i PE3I W=GT_PUW L=GT_PUL M=1.0 
+ AD=4.8e-07*(GT_PUW) AS=4.8e-07*(GT_PUW) PD=2*(4.8e-07+(GT_PUW)) 
+ PS=2.0*(4.8e-07+(GT_PUW)) NRD=2.7e-07/(GT_PUW) NRS=2.7e-07/(GT_PUW)
MMN1 out b inh_ground_gnd3i inh_ground_gnd3i NE3I W=GT_PDW L=GT_PDL M=1.0 
+ AD=4.8e-07*(GT_PDW) AS=4.8e-07*(GT_PDW) PD=2*(4.8e-07+(GT_PDW)) 
+ PS=2.0*(4.8e-07+(GT_PDW)) NRD=2.7e-07/(GT_PDW) NRS=2.7e-07/(GT_PDW)
MMN2 out a inh_ground_gnd3i inh_ground_gnd3i NE3I W=GT_PDW L=GT_PDL M=1.0 
+ AD=4.8e-07*(GT_PDW) AS=4.8e-07*(GT_PDW) PD=2*(4.8e-07+(GT_PDW)) 
+ PS=2.0*(4.8e-07+(GT_PDW)) NRD=2.7e-07/(GT_PDW) NRS=2.7e-07/(GT_PDW)
.ENDS

************************************************************************
* Library Name: D_CELLS_JI3V
* Cell Name:    NO2JI3VX0
* View Name:    cmos_sch
************************************************************************

.SUBCKT NO2JI3VX0 A B Q inh_ground_gnd3i inh_power_vdd3i
*.PININFO A:I B:I Q:O inh_ground_gnd3i:B inh_power_vdd3i:B
Xnor2_1 A B Q inh_ground_gnd3i inh_power_vdd3i / nor2ji3v GT_PDL=350.00n 
+ GT_PDW=420.00n GT_PUL=300.00n GT_PUW=850.00n
.ENDS

************************************************************************
* Library Name: D_CELLS_JI3V
* Cell Name:    NA2JI3VX0
* View Name:    cmos_sch
************************************************************************

.SUBCKT NA2JI3VX0 A B Q inh_ground_gnd3i inh_power_vdd3i
*.PININFO A:I B:I Q:O inh_ground_gnd3i:B inh_power_vdd3i:B
Xnand2_1 A B Q inh_ground_gnd3i inh_power_vdd3i / nand2ji3v GT_PDL=350.00n 
+ GT_PDW=560.0n GT_PUL=300.00n GT_PUW=700.00n
.ENDS

************************************************************************
* Library Name: GATES_JI3V
* Cell Name:    o22na2ji3v
* View Name:    schematic
************************************************************************

.SUBCKT o22na2ji3v a b c d out inh_ground_gnd3i inh_power_vdd3i
*.PININFO a:I b:I c:I d:I out:O inh_ground_gnd3i:B inh_power_vdd3i:B
MMN3 net6 c inh_ground_gnd3i inh_ground_gnd3i NE3I W=GT_PDW L=GT_PDL M=1.0 
+ AD=4.8e-07*(GT_PDW) AS=4.8e-07*(GT_PDW) PD=2*(4.8e-07+(GT_PDW)) 
+ PS=2.0*(4.8e-07+(GT_PDW)) NRD=2.7e-07/(GT_PDW) NRS=2.7e-07/(GT_PDW)
MMN1 out a net6 inh_ground_gnd3i NE3I W=GT_PDW L=GT_PDL M=1.0 
+ AD=4.8e-07*(GT_PDW) AS=4.8e-07*(GT_PDW) PD=2*(4.8e-07+(GT_PDW)) 
+ PS=2.0*(4.8e-07+(GT_PDW)) NRD=2.7e-07/(GT_PDW) NRS=2.7e-07/(GT_PDW)
MMN4 net6 d inh_ground_gnd3i inh_ground_gnd3i NE3I W=GT_PDW L=GT_PDL M=1.0 
+ AD=4.8e-07*(GT_PDW) AS=4.8e-07*(GT_PDW) PD=2*(4.8e-07+(GT_PDW)) 
+ PS=2.0*(4.8e-07+(GT_PDW)) NRD=2.7e-07/(GT_PDW) NRS=2.7e-07/(GT_PDW)
MMN2 out b net6 inh_ground_gnd3i NE3I W=GT_PDW L=GT_PDL M=1.0 
+ AD=4.8e-07*(GT_PDW) AS=4.8e-07*(GT_PDW) PD=2*(4.8e-07+(GT_PDW)) 
+ PS=2.0*(4.8e-07+(GT_PDW)) NRD=2.7e-07/(GT_PDW) NRS=2.7e-07/(GT_PDW)
MMP4 net21 d inh_power_vdd3i inh_power_vdd3i PE3I W=GT_PUW L=GT_PUL M=1.0 
+ AD=4.8e-07*(GT_PUW) AS=4.8e-07*(GT_PUW) PD=2*(4.8e-07+(GT_PUW)) 
+ PS=2.0*(4.8e-07+(GT_PUW)) NRD=2.7e-07/(GT_PUW) NRS=2.7e-07/(GT_PUW)
MMP3 out c net21 inh_power_vdd3i PE3I W=GT_PUW L=GT_PUL M=1.0 
+ AD=4.8e-07*(GT_PUW) AS=4.8e-07*(GT_PUW) PD=2*(4.8e-07+(GT_PUW)) 
+ PS=2.0*(4.8e-07+(GT_PUW)) NRD=2.7e-07/(GT_PUW) NRS=2.7e-07/(GT_PUW)
MMP1 out a net22 inh_power_vdd3i PE3I W=GT_PUW L=GT_PUL M=1.0 
+ AD=4.8e-07*(GT_PUW) AS=4.8e-07*(GT_PUW) PD=2*(4.8e-07+(GT_PUW)) 
+ PS=2.0*(4.8e-07+(GT_PUW)) NRD=2.7e-07/(GT_PUW) NRS=2.7e-07/(GT_PUW)
MMP2 net22 b inh_power_vdd3i inh_power_vdd3i PE3I W=GT_PUW L=GT_PUL M=1.0 
+ AD=4.8e-07*(GT_PUW) AS=4.8e-07*(GT_PUW) PD=2*(4.8e-07+(GT_PUW)) 
+ PS=2.0*(4.8e-07+(GT_PUW)) NRD=2.7e-07/(GT_PUW) NRS=2.7e-07/(GT_PUW)
.ENDS

************************************************************************
* Library Name: D_CELLS_JI3V
* Cell Name:    ON22JI3VX1
* View Name:    cmos_sch
************************************************************************

.SUBCKT ON22JI3VX1 A B C D Q inh_ground_gnd3i inh_power_vdd3i
*.PININFO A:I B:I C:I D:I Q:O inh_ground_gnd3i:B inh_power_vdd3i:B
Xo22na2_1 A B C D Q inh_ground_gnd3i inh_power_vdd3i / o22na2ji3v 
+ GT_PUL=300.00n GT_PUW=1.41u GT_PDL=350.00n GT_PDW=890.00n
.ENDS

************************************************************************
* Library Name: GATES_JI3V
* Cell Name:    a2no3ji3v
* View Name:    schematic
************************************************************************

.SUBCKT a2no3ji3v a b c d out inh_ground_gnd3i inh_power_vdd3i
*.PININFO a:I b:I c:I d:I out:O inh_ground_gnd3i:B inh_power_vdd3i:B
MMN4 out d inh_ground_gnd3i inh_ground_gnd3i NE3I W=0.75*GT_PDW L=GT_PDL M=1.0 
+ AD=4.8e-07*(0.75*GT_PDW) AS=4.8e-07*(0.75*GT_PDW) 
+ PD=2*(4.8e-07+(0.75*GT_PDW)) PS=2.0*(4.8e-07+(0.75*GT_PDW)) 
+ NRD=2.7e-07/(0.75*GT_PDW) NRS=2.7e-07/(0.75*GT_PDW)
MMN3 out c inh_ground_gnd3i inh_ground_gnd3i NE3I W=0.75*GT_PDW L=GT_PDL M=1.0 
+ AD=4.8e-07*(0.75*GT_PDW) AS=4.8e-07*(0.75*GT_PDW) 
+ PD=2*(4.8e-07+(0.75*GT_PDW)) PS=2.0*(4.8e-07+(0.75*GT_PDW)) 
+ NRD=2.7e-07/(0.75*GT_PDW) NRS=2.7e-07/(0.75*GT_PDW)
MMN1 out a net19 inh_ground_gnd3i NE3I W=GT_PDW L=GT_PDL M=1.0 
+ AD=4.8e-07*(GT_PDW) AS=4.8e-07*(GT_PDW) PD=2*(4.8e-07+(GT_PDW)) 
+ PS=2.0*(4.8e-07+(GT_PDW)) NRD=2.7e-07/(GT_PDW) NRS=2.7e-07/(GT_PDW)
MMN2 net19 b inh_ground_gnd3i inh_ground_gnd3i NE3I W=GT_PDW L=GT_PDL M=1.0 
+ AD=4.8e-07*(GT_PDW) AS=4.8e-07*(GT_PDW) PD=2*(4.8e-07+(GT_PDW)) 
+ PS=2.0*(4.8e-07+(GT_PDW)) NRD=2.7e-07/(GT_PDW) NRS=2.7e-07/(GT_PDW)
MMP1 net10 a inh_power_vdd3i inh_power_vdd3i PE3I W=GT_PUW L=GT_PUL M=1.0 
+ AD=4.8e-07*(GT_PUW) AS=4.8e-07*(GT_PUW) PD=2*(4.8e-07+(GT_PUW)) 
+ PS=2.0*(4.8e-07+(GT_PUW)) NRD=2.7e-07/(GT_PUW) NRS=2.7e-07/(GT_PUW)
MMP4 out d net22 inh_power_vdd3i PE3I W=GT_PUW L=GT_PUL M=1.0 
+ AD=4.8e-07*(GT_PUW) AS=4.8e-07*(GT_PUW) PD=2*(4.8e-07+(GT_PUW)) 
+ PS=2.0*(4.8e-07+(GT_PUW)) NRD=2.7e-07/(GT_PUW) NRS=2.7e-07/(GT_PUW)
MMP2 net10 b inh_power_vdd3i inh_power_vdd3i PE3I W=GT_PUW L=GT_PUL M=1.0 
+ AD=4.8e-07*(GT_PUW) AS=4.8e-07*(GT_PUW) PD=2*(4.8e-07+(GT_PUW)) 
+ PS=2.0*(4.8e-07+(GT_PUW)) NRD=2.7e-07/(GT_PUW) NRS=2.7e-07/(GT_PUW)
MMP3 net22 c net10 inh_power_vdd3i PE3I W=GT_PUW L=GT_PUL M=1.0 
+ AD=4.8e-07*(GT_PUW) AS=4.8e-07*(GT_PUW) PD=2*(4.8e-07+(GT_PUW)) 
+ PS=2.0*(4.8e-07+(GT_PUW)) NRD=2.7e-07/(GT_PUW) NRS=2.7e-07/(GT_PUW)
.ENDS

************************************************************************
* Library Name: D_CELLS_JI3V
* Cell Name:    AN211JI3VX1
* View Name:    cmos_sch
************************************************************************

.SUBCKT AN211JI3VX1 A B C D Q inh_ground_gnd3i inh_power_vdd3i
*.PININFO A:I B:I C:I D:I Q:O inh_ground_gnd3i:B inh_power_vdd3i:B
Xa2no3_1 A B C D Q inh_ground_gnd3i inh_power_vdd3i / a2no3ji3v GT_PUL=300.00n 
+ GT_PUW=1.41u GT_PDL=350.00n GT_PDW=890.00n
.ENDS

************************************************************************
* Library Name: D_CELLS_JI3V
* Cell Name:    INJI3VX0
* View Name:    cmos_sch
************************************************************************

.SUBCKT INJI3VX0 A Q inh_ground_gnd3i inh_power_vdd3i
*.PININFO A:I Q:O inh_ground_gnd3i:B inh_power_vdd3i:B
Xinvr_1 A Q inh_ground_gnd3i inh_power_vdd3i / invrji3v GT_PDL=350.00n 
+ GT_PDW=420.00n GT_PUL=300.00n GT_PUW=940.00n
.ENDS

************************************************************************
* Library Name: GATES_JI3V
* Cell Name:    o2na3ji3v
* View Name:    schematic
************************************************************************

.SUBCKT o2na3ji3v a b c d out inh_ground_gnd3i inh_power_vdd3i
*.PININFO a:I b:I c:I d:I out:O inh_ground_gnd3i:B inh_power_vdd3i:B
MMN2 out b net10 inh_ground_gnd3i NE3I W=GT_PDW L=GT_PDL M=1.0 
+ AD=4.8e-07*(GT_PDW) AS=4.8e-07*(GT_PDW) PD=2*(4.8e-07+(GT_PDW)) 
+ PS=2.0*(4.8e-07+(GT_PDW)) NRD=2.7e-07/(GT_PDW) NRS=2.7e-07/(GT_PDW)
MMN1 out a net10 inh_ground_gnd3i NE3I W=GT_PDW L=GT_PDL M=1.0 
+ AD=4.8e-07*(GT_PDW) AS=4.8e-07*(GT_PDW) PD=2*(4.8e-07+(GT_PDW)) 
+ PS=2.0*(4.8e-07+(GT_PDW)) NRD=2.7e-07/(GT_PDW) NRS=2.7e-07/(GT_PDW)
MMN3 net10 c net25 inh_ground_gnd3i NE3I W=GT_PDW L=GT_PDL M=1.0 
+ AD=4.8e-07*(GT_PDW) AS=4.8e-07*(GT_PDW) PD=2*(4.8e-07+(GT_PDW)) 
+ PS=2.0*(4.8e-07+(GT_PDW)) NRD=2.7e-07/(GT_PDW) NRS=2.7e-07/(GT_PDW)
MMN4 net25 d inh_ground_gnd3i inh_ground_gnd3i NE3I W=GT_PDW L=GT_PDL M=1.0 
+ AD=4.8e-07*(GT_PDW) AS=4.8e-07*(GT_PDW) PD=2*(4.8e-07+(GT_PDW)) 
+ PS=2.0*(4.8e-07+(GT_PDW)) NRD=2.7e-07/(GT_PDW) NRS=2.7e-07/(GT_PDW)
MMP4 out d inh_power_vdd3i inh_power_vdd3i PE3I W=0.7*GT_PUW L=GT_PUL M=1.0 
+ AD=4.8e-07*(0.7*GT_PUW) AS=4.8e-07*(0.7*GT_PUW) PD=2*(4.8e-07+(0.7*GT_PUW)) 
+ PS=2.0*(4.8e-07+(0.7*GT_PUW)) NRD=2.7e-07/(0.7*GT_PUW) 
+ NRS=2.7e-07/(0.7*GT_PUW)
MMP2 net24 b inh_power_vdd3i inh_power_vdd3i PE3I W=GT_PUW L=GT_PUL M=1.0 
+ AD=4.8e-07*(GT_PUW) AS=4.8e-07*(GT_PUW) PD=2*(4.8e-07+(GT_PUW)) 
+ PS=2.0*(4.8e-07+(GT_PUW)) NRD=2.7e-07/(GT_PUW) NRS=2.7e-07/(GT_PUW)
MMP1 out a net24 inh_power_vdd3i PE3I W=GT_PUW L=GT_PUL M=1.0 
+ AD=4.8e-07*(GT_PUW) AS=4.8e-07*(GT_PUW) PD=2*(4.8e-07+(GT_PUW)) 
+ PS=2.0*(4.8e-07+(GT_PUW)) NRD=2.7e-07/(GT_PUW) NRS=2.7e-07/(GT_PUW)
MMP3 out c inh_power_vdd3i inh_power_vdd3i PE3I W=0.7*GT_PUW L=GT_PUL M=1.0 
+ AD=4.8e-07*(0.7*GT_PUW) AS=4.8e-07*(0.7*GT_PUW) PD=2*(4.8e-07+(0.7*GT_PUW)) 
+ PS=2.0*(4.8e-07+(0.7*GT_PUW)) NRD=2.7e-07/(0.7*GT_PUW) 
+ NRS=2.7e-07/(0.7*GT_PUW)
.ENDS

************************************************************************
* Library Name: D_CELLS_JI3V
* Cell Name:    ON211JI3VX1
* View Name:    cmos_sch
************************************************************************

.SUBCKT ON211JI3VX1 A B C D Q inh_ground_gnd3i inh_power_vdd3i
*.PININFO A:I B:I C:I D:I Q:O inh_ground_gnd3i:B inh_power_vdd3i:B
Xo2na3_1 A B C D Q inh_ground_gnd3i inh_power_vdd3i / o2na3ji3v GT_PUL=300.00n 
+ GT_PUW=1.38u GT_PDL=350.00n GT_PDW=900.0n
.ENDS

************************************************************************
* Library Name: GATES_JI3V
* Cell Name:    a2no2ji3v
* View Name:    schematic
************************************************************************

.SUBCKT a2no2ji3v a b c out inh_ground_gnd3i inh_power_vdd3i
*.PININFO a:I b:I c:I out:O inh_ground_gnd3i:B inh_power_vdd3i:B
MMN2 net41 b inh_ground_gnd3i inh_ground_gnd3i NE3I W=GT_PDW L=GT_PDL M=1.0 
+ AD=4.8e-07*(GT_PDW) AS=4.8e-07*(GT_PDW) PD=2*(4.8e-07+(GT_PDW)) 
+ PS=2.0*(4.8e-07+(GT_PDW)) NRD=2.7e-07/(GT_PDW) NRS=2.7e-07/(GT_PDW)
MMN1 out a net41 inh_ground_gnd3i NE3I W=GT_PDW L=GT_PDL M=1.0 
+ AD=4.8e-07*(GT_PDW) AS=4.8e-07*(GT_PDW) PD=2*(4.8e-07+(GT_PDW)) 
+ PS=2.0*(4.8e-07+(GT_PDW)) NRD=2.7e-07/(GT_PDW) NRS=2.7e-07/(GT_PDW)
MMN3 out c inh_ground_gnd3i inh_ground_gnd3i NE3I W=0.75*GT_PDW L=GT_PDL M=1.0 
+ AD=4.8e-07*(0.75*GT_PDW) AS=4.8e-07*(0.75*GT_PDW) 
+ PD=2*(4.8e-07+(0.75*GT_PDW)) PS=2.0*(4.8e-07+(0.75*GT_PDW)) 
+ NRD=2.7e-07/(0.75*GT_PDW) NRS=2.7e-07/(0.75*GT_PDW)
MMP1 net54 a inh_power_vdd3i inh_power_vdd3i PE3I W=GT_PUW L=GT_PUL M=1.0 
+ AD=4.8e-07*(GT_PUW) AS=4.8e-07*(GT_PUW) PD=2*(4.8e-07+(GT_PUW)) 
+ PS=2.0*(4.8e-07+(GT_PUW)) NRD=2.7e-07/(GT_PUW) NRS=2.7e-07/(GT_PUW)
MMP2 net54 b inh_power_vdd3i inh_power_vdd3i PE3I W=GT_PUW L=GT_PUL M=1.0 
+ AD=4.8e-07*(GT_PUW) AS=4.8e-07*(GT_PUW) PD=2*(4.8e-07+(GT_PUW)) 
+ PS=2.0*(4.8e-07+(GT_PUW)) NRD=2.7e-07/(GT_PUW) NRS=2.7e-07/(GT_PUW)
MMP3 out c net54 inh_power_vdd3i PE3I W=GT_PUW L=GT_PUL M=1.0 
+ AD=4.8e-07*(GT_PUW) AS=4.8e-07*(GT_PUW) PD=2*(4.8e-07+(GT_PUW)) 
+ PS=2.0*(4.8e-07+(GT_PUW)) NRD=2.7e-07/(GT_PUW) NRS=2.7e-07/(GT_PUW)
.ENDS

************************************************************************
* Library Name: D_CELLS_JI3V
* Cell Name:    AN21JI3VX1
* View Name:    cmos_sch
************************************************************************

.SUBCKT AN21JI3VX1 A B C Q inh_ground_gnd3i inh_power_vdd3i
*.PININFO A:I B:I C:I Q:O inh_ground_gnd3i:B inh_power_vdd3i:B
Xa2no2_1 A B C Q inh_ground_gnd3i inh_power_vdd3i / a2no2ji3v GT_PUL=300.00n 
+ GT_PUW=1.41u GT_PDL=350.00n GT_PDW=890.00n
.ENDS

************************************************************************
* Library Name: GATES_JI3V
* Cell Name:    nand3ji3v
* View Name:    schematic
************************************************************************

.SUBCKT nand3ji3v a b c out inh_ground_gnd3i inh_power_vdd3i
*.PININFO a:I b:I c:I out:O inh_ground_gnd3i:B inh_power_vdd3i:B
MMP1 out a inh_power_vdd3i inh_power_vdd3i PE3I W=GT_PUW L=GT_PUL M=1.0 
+ AD=4.8e-07*(GT_PUW) AS=4.8e-07*(GT_PUW) PD=2*(4.8e-07+(GT_PUW)) 
+ PS=2.0*(4.8e-07+(GT_PUW)) NRD=2.7e-07/(GT_PUW) NRS=2.7e-07/(GT_PUW)
MMP3 out c inh_power_vdd3i inh_power_vdd3i PE3I W=GT_PUW L=GT_PUL M=1.0 
+ AD=4.8e-07*(GT_PUW) AS=4.8e-07*(GT_PUW) PD=2*(4.8e-07+(GT_PUW)) 
+ PS=2.0*(4.8e-07+(GT_PUW)) NRD=2.7e-07/(GT_PUW) NRS=2.7e-07/(GT_PUW)
MMP2 out b inh_power_vdd3i inh_power_vdd3i PE3I W=GT_PUW L=GT_PUL M=1.0 
+ AD=4.8e-07*(GT_PUW) AS=4.8e-07*(GT_PUW) PD=2*(4.8e-07+(GT_PUW)) 
+ PS=2.0*(4.8e-07+(GT_PUW)) NRD=2.7e-07/(GT_PUW) NRS=2.7e-07/(GT_PUW)
MMN1 out a net37 inh_ground_gnd3i NE3I W=GT_PDW L=GT_PDL M=1.0 
+ AD=4.8e-07*(GT_PDW) AS=4.8e-07*(GT_PDW) PD=2*(4.8e-07+(GT_PDW)) 
+ PS=2.0*(4.8e-07+(GT_PDW)) NRD=2.7e-07/(GT_PDW) NRS=2.7e-07/(GT_PDW)
MMN3 net32 c inh_ground_gnd3i inh_ground_gnd3i NE3I W=GT_PDW L=GT_PDL M=1.0 
+ AD=4.8e-07*(GT_PDW) AS=4.8e-07*(GT_PDW) PD=2*(4.8e-07+(GT_PDW)) 
+ PS=2.0*(4.8e-07+(GT_PDW)) NRD=2.7e-07/(GT_PDW) NRS=2.7e-07/(GT_PDW)
MMN2 net37 b net32 inh_ground_gnd3i NE3I W=GT_PDW L=GT_PDL M=1.0 
+ AD=4.8e-07*(GT_PDW) AS=4.8e-07*(GT_PDW) PD=2*(4.8e-07+(GT_PDW)) 
+ PS=2.0*(4.8e-07+(GT_PDW)) NRD=2.7e-07/(GT_PDW) NRS=2.7e-07/(GT_PDW)
.ENDS

************************************************************************
* Library Name: D_CELLS_JI3V
* Cell Name:    NA3I1JI3VX1
* View Name:    cmos_sch
************************************************************************

.SUBCKT NA3I1JI3VX1 AN B C Q inh_ground_gnd3i inh_power_vdd3i
*.PININFO AN:I B:I C:I Q:O inh_ground_gnd3i:B inh_power_vdd3i:B
Xnand3_1 C B net5 Q inh_ground_gnd3i inh_power_vdd3i / nand3ji3v 
+ GT_PDL=350.00n GT_PDW=890.00n GT_PUL=300.00n GT_PUW=1.0u
Xinvr_1 AN net5 inh_ground_gnd3i inh_power_vdd3i / invrji3v GT_PDL=350.00n 
+ GT_PDW=420.00n GT_PUL=300.00n GT_PUW=700.0n
.ENDS

************************************************************************
* Library Name: D_CELLS_JI3V
* Cell Name:    NA3JI3VX0
* View Name:    cmos_sch
************************************************************************

.SUBCKT NA3JI3VX0 A B C Q inh_ground_gnd3i inh_power_vdd3i
*.PININFO A:I B:I C:I Q:O inh_ground_gnd3i:B inh_power_vdd3i:B
Xnand3_1 A B C Q inh_ground_gnd3i inh_power_vdd3i / nand3ji3v GT_PDL=350.00n 
+ GT_PDW=700.00n GT_PUL=300.00n GT_PUW=700.00n
.ENDS

************************************************************************
* Library Name: D_CELLS_JI3V
* Cell Name:    NO2I1JI3VX1
* View Name:    cmos_sch
************************************************************************

.SUBCKT NO2I1JI3VX1 AN B Q inh_ground_gnd3i inh_power_vdd3i
*.PININFO AN:I B:I Q:O inh_ground_gnd3i:B inh_power_vdd3i:B
Xnor2_1 B net12 Q inh_ground_gnd3i inh_power_vdd3i / nor2ji3v GT_PDL=350.00n 
+ GT_PDW=890.00n GT_PUL=300.00n GT_PUW=1.41u
Xinvr_1 AN net12 inh_ground_gnd3i inh_power_vdd3i / invrji3v GT_PDL=350.00n 
+ GT_PDW=420.00n GT_PUL=300.00n GT_PUW=700.0n
.ENDS

************************************************************************
* Library Name: GATES_JI3V
* Cell Name:    nand4ji3v
* View Name:    schematic
************************************************************************

.SUBCKT nand4ji3v a b c out d inh_ground_gnd3i inh_power_vdd3i
*.PININFO a:I b:I c:I d:I out:O inh_ground_gnd3i:B inh_power_vdd3i:B
MMN1 out a net15 inh_ground_gnd3i NE3I W=GT_PDW L=GT_PDL M=1.0 
+ AD=4.8e-07*(GT_PDW) AS=4.8e-07*(GT_PDW) PD=2*(4.8e-07+(GT_PDW)) 
+ PS=2.0*(4.8e-07+(GT_PDW)) NRD=2.7e-07/(GT_PDW) NRS=2.7e-07/(GT_PDW)
MMN3 net16 c net14 inh_ground_gnd3i NE3I W=GT_PDW L=GT_PDL M=1.0 
+ AD=4.8e-07*(GT_PDW) AS=4.8e-07*(GT_PDW) PD=2*(4.8e-07+(GT_PDW)) 
+ PS=2.0*(4.8e-07+(GT_PDW)) NRD=2.7e-07/(GT_PDW) NRS=2.7e-07/(GT_PDW)
MMN2 net15 b net16 inh_ground_gnd3i NE3I W=GT_PDW L=GT_PDL M=1.0 
+ AD=4.8e-07*(GT_PDW) AS=4.8e-07*(GT_PDW) PD=2*(4.8e-07+(GT_PDW)) 
+ PS=2.0*(4.8e-07+(GT_PDW)) NRD=2.7e-07/(GT_PDW) NRS=2.7e-07/(GT_PDW)
MMN4 net14 d inh_ground_gnd3i inh_ground_gnd3i NE3I W=GT_PDW L=GT_PDL M=1.0 
+ AD=4.8e-07*(GT_PDW) AS=4.8e-07*(GT_PDW) PD=2*(4.8e-07+(GT_PDW)) 
+ PS=2.0*(4.8e-07+(GT_PDW)) NRD=2.7e-07/(GT_PDW) NRS=2.7e-07/(GT_PDW)
MMP1 out a inh_power_vdd3i inh_power_vdd3i PE3I W=GT_PUW L=GT_PUL M=1.0 
+ AD=4.8e-07*(GT_PUW) AS=4.8e-07*(GT_PUW) PD=2*(4.8e-07+(GT_PUW)) 
+ PS=2.0*(4.8e-07+(GT_PUW)) NRD=2.7e-07/(GT_PUW) NRS=2.7e-07/(GT_PUW)
MMP3 out c inh_power_vdd3i inh_power_vdd3i PE3I W=GT_PUW L=GT_PUL M=1.0 
+ AD=4.8e-07*(GT_PUW) AS=4.8e-07*(GT_PUW) PD=2*(4.8e-07+(GT_PUW)) 
+ PS=2.0*(4.8e-07+(GT_PUW)) NRD=2.7e-07/(GT_PUW) NRS=2.7e-07/(GT_PUW)
MMP2 out b inh_power_vdd3i inh_power_vdd3i PE3I W=GT_PUW L=GT_PUL M=1.0 
+ AD=4.8e-07*(GT_PUW) AS=4.8e-07*(GT_PUW) PD=2*(4.8e-07+(GT_PUW)) 
+ PS=2.0*(4.8e-07+(GT_PUW)) NRD=2.7e-07/(GT_PUW) NRS=2.7e-07/(GT_PUW)
MMP4 out d inh_power_vdd3i inh_power_vdd3i PE3I W=GT_PUW L=GT_PUL M=1.0 
+ AD=4.8e-07*(GT_PUW) AS=4.8e-07*(GT_PUW) PD=2*(4.8e-07+(GT_PUW)) 
+ PS=2.0*(4.8e-07+(GT_PUW)) NRD=2.7e-07/(GT_PUW) NRS=2.7e-07/(GT_PUW)
.ENDS

************************************************************************
* Library Name: D_CELLS_JI3V
* Cell Name:    NA4JI3VX0
* View Name:    cmos_sch
************************************************************************

.SUBCKT NA4JI3VX0 A B C D Q inh_ground_gnd3i inh_power_vdd3i
*.PININFO A:I B:I C:I D:I Q:O inh_ground_gnd3i:B inh_power_vdd3i:B
Xnand4_1 A B C Q D inh_ground_gnd3i inh_power_vdd3i / nand4ji3v GT_PUL=300.00n 
+ GT_PUW=700.00n GT_PDL=350.00n GT_PDW=800.0n
.ENDS

************************************************************************
* Library Name: D_CELLS_JI3V
* Cell Name:    NA22JI3VX1
* View Name:    cmos_sch
************************************************************************

.SUBCKT NA22JI3VX1 A B C Q inh_ground_gnd3i inh_power_vdd3i
*.PININFO A:I B:I C:I Q:O inh_ground_gnd3i:B inh_power_vdd3i:B
Xnand2_2 net05 C Q inh_ground_gnd3i inh_power_vdd3i / nand2ji3v GT_PDL=350.00n 
+ GT_PDW=890.00n GT_PUL=300.00n GT_PUW=1.0u
Xnand2_1 A B net05 inh_ground_gnd3i inh_power_vdd3i / nand2ji3v GT_PDL=350.00n 
+ GT_PDW=560.00n GT_PUL=300.00n GT_PUW=700.0n
.ENDS

************************************************************************
* Library Name: D_CELLS_JI3V
* Cell Name:    NA2I1JI3VX1
* View Name:    cmos_sch
************************************************************************

.SUBCKT NA2I1JI3VX1 AN B Q inh_ground_gnd3i inh_power_vdd3i
*.PININFO AN:I B:I Q:O inh_ground_gnd3i:B inh_power_vdd3i:B
Xinvr_1 AN net4 inh_ground_gnd3i inh_power_vdd3i / invrji3v GT_PDL=350.00n 
+ GT_PDW=420.00n GT_PUL=300.00n GT_PUW=700.0n
Xnand2_1 B net4 Q inh_ground_gnd3i inh_power_vdd3i / nand2ji3v GT_PDL=350.00n 
+ GT_PDW=890.0n GT_PUL=300.00n GT_PUW=1.0u
.ENDS

************************************************************************
* Library Name: D_CELLS_JI3V
* Cell Name:    OR2JI3VX0
* View Name:    cmos_sch
************************************************************************

.SUBCKT OR2JI3VX0 A B Q inh_ground_gnd3i inh_power_vdd3i
*.PININFO A:I B:I Q:O inh_ground_gnd3i:B inh_power_vdd3i:B
Xinvr_1 net10 Q inh_ground_gnd3i inh_power_vdd3i / invrji3v GT_PDL=350.00n 
+ GT_PDW=420.00n GT_PUL=300.000n GT_PUW=700.00n
Xnor2_1 A B net10 inh_ground_gnd3i inh_power_vdd3i / nor2ji3v GT_PDL=350.00n 
+ GT_PDW=420.00n GT_PUL=300.00n GT_PUW=850.00n
.ENDS

************************************************************************
* Library Name: D_CELLS_JI3V
* Cell Name:    BUJI3VX12
* View Name:    cmos_sch
************************************************************************

.SUBCKT BUJI3VX12 A Q inh_ground_gnd3i inh_power_vdd3i
*.PININFO A:I Q:O inh_ground_gnd3i:B inh_power_vdd3i:B
Xinvr_1 A net9 inh_ground_gnd3i inh_power_vdd3i / invrji3v GT_PDL=350.00n 
+ GT_PDW=2.4u GT_PUL=300.00n GT_PUW=5.88u
Xinvr_2 net9 Q inh_ground_gnd3i inh_power_vdd3i / invrji3v GT_PDL=350.00n 
+ GT_PDW=7.2u GT_PUL=300.00n GT_PUW=17.64u
.ENDS

************************************************************************
* Library Name: D_CELLS_JI3V
* Cell Name:    AND2JI3VX1
* View Name:    cmos_sch
************************************************************************

.SUBCKT AND2JI3VX1 A B Q inh_ground_gnd3i inh_power_vdd3i
*.PININFO A:I B:I Q:O inh_ground_gnd3i:B inh_power_vdd3i:B
Xinvr_1 net10 Q inh_ground_gnd3i inh_power_vdd3i / invrji3v GT_PDL=350.00n 
+ GT_PDW=890.00n GT_PUL=300.00n GT_PUW=1.41u
Xnand2_1 A B net10 inh_ground_gnd3i inh_power_vdd3i / nand2ji3v GT_PDL=350.00n 
+ GT_PDW=560.00n GT_PUL=300.00n GT_PUW=700.00n
.ENDS

************************************************************************
* Library Name: D_CELLS_JI3V
* Cell Name:    BUJI3VX8
* View Name:    cmos_sch
************************************************************************

.SUBCKT BUJI3VX8 A Q inh_ground_gnd3i inh_power_vdd3i
*.PININFO A:I Q:O inh_ground_gnd3i:B inh_power_vdd3i:B
Xinvr_1 A net9 inh_ground_gnd3i inh_power_vdd3i / invrji3v GT_PDL=350.00n 
+ GT_PDW=1.78u GT_PUL=300.00n GT_PUW=4.41u
Xinvr_2 net9 Q inh_ground_gnd3i inh_power_vdd3i / invrji3v GT_PDL=350.00n 
+ GT_PDW=5.34u GT_PUL=300.00n GT_PUW=11.76u
.ENDS

************************************************************************
* Library Name: GATES_JI3V
* Cell Name:    o3na2ji3v
* View Name:    schematic
************************************************************************

.SUBCKT o3na2ji3v a b c d out inh_ground_gnd3i inh_power_vdd3i
*.PININFO a:I b:I c:I d:I out:O inh_ground_gnd3i:B inh_power_vdd3i:B
MMN1 net10 a inh_ground_gnd3i inh_ground_gnd3i NE3I W=GT_PDW L=GT_PDL M=1.0 
+ AD=4.8e-07*(GT_PDW) AS=4.8e-07*(GT_PDW) PD=2*(4.8e-07+(GT_PDW)) 
+ PS=2.0*(4.8e-07+(GT_PDW)) NRD=2.7e-07/(GT_PDW) NRS=2.7e-07/(GT_PDW)
MMN3 net10 b inh_ground_gnd3i inh_ground_gnd3i NE3I W=GT_PDW L=GT_PDL M=1.0 
+ AD=4.8e-07*(GT_PDW) AS=4.8e-07*(GT_PDW) PD=2*(4.8e-07+(GT_PDW)) 
+ PS=2.0*(4.8e-07+(GT_PDW)) NRD=2.7e-07/(GT_PDW) NRS=2.7e-07/(GT_PDW)
MMN4 net10 c inh_ground_gnd3i inh_ground_gnd3i NE3I W=GT_PDW L=GT_PDL M=1.0 
+ AD=4.8e-07*(GT_PDW) AS=4.8e-07*(GT_PDW) PD=2*(4.8e-07+(GT_PDW)) 
+ PS=2.0*(4.8e-07+(GT_PDW)) NRD=2.7e-07/(GT_PDW) NRS=2.7e-07/(GT_PDW)