** Layout Netlist, pvs precompare
** 

.subckt aska_dig_lvs gndd vdd3 
MX0/X8325/M0 X0/X8325/8 X0/162 X0/X8325/9 gndd NE3I L=3.5e-07 W=4.2e-07 AD=5.25e-14 AS=2.016e-13 PD=6.7e-07 PS=1.8e-06 m=1 
MX0/X8325/M1 gndd X0/1172 X0/X8325/8 gndd NE3I L=3.5e-07 W=4.2e-07 AD=1.134e-13 AS=5.25e-14 PD=9.6e-07 PS=6.7e-07 m=1 
MX0/X8325/M2 X0/X8325/7 X0/162 gndd gndd NE3I L=3.5e-07 W=4.2e-07 AD=1.134e-13 AS=1.134e-13 PD=9.6e-07 PS=9.6e-07 m=1 
MX0/X8325/M3 gndd X0/1172 X0/X8325/7 gndd NE3I L=3.5e-07 W=4.2e-07 AD=3.698e-13 AS=1.134e-13 PD=3.22e-06 PS=9.6e-07 m=1 
MX0/X8325/M4 X0/170 X0/X8325/9 X0/X8325/7 gndd NE3I L=3.5e-07 W=4.2e-07 AD=2.016e-13 AS=2.058e-13 PD=1.8e-06 PS=1.82e-06 m=1 
MX0/X8325/M5 X0/X8325/9 X0/162 vdd3 vdd3 PE3I L=3e-07 W=9e-07 AD=3.195e-13 AS=8.517e-13 PD=1.61e-06 PS=4.61e-06 m=1 
MX0/X8325/M6 vdd3 X0/1172 X0/X8325/9 vdd3 PE3I L=3e-07 W=9e-07 AD=4.30855e-13 AS=3.195e-13 PD=1.83273e-06 PS=1.61e-06 m=1 
MX0/X8325/M7 X0/X8325/10 X0/162 vdd3 vdd3 PE3I L=3e-07 W=1.3e-06 AD=1.95e-13 AS=6.22345e-13 PD=1.6e-06 PS=2.64727e-06 m=1 
MX0/X8325/M8 X0/170 X0/1172 X0/X8325/10 vdd3 PE3I L=3e-07 W=1.3e-06 AD=6.21324e-13 AS=1.95e-13 PD=2.52941e-06 PS=1.6e-06 m=1 
MX0/X8325/M9 vdd3 X0/X8325/9 X0/170 vdd3 PE3I L=3e-07 W=9.1e-07 AD=8.0675e-13 AS=4.34926e-13 PD=4.39e-06 PS=1.77059e-06 m=1 
MX0/X8326/M0 X0/X8326/8 X0/173 X0/X8326/9 gndd NE3I L=3.5e-07 W=4.2e-07 AD=5.25e-14 AS=2.016e-13 PD=6.7e-07 PS=1.8e-06 m=1 
MX0/X8326/M1 gndd X0/706 X0/X8326/8 gndd NE3I L=3.5e-07 W=4.2e-07 AD=1.134e-13 AS=5.25e-14 PD=9.6e-07 PS=6.7e-07 m=1 
MX0/X8326/M2 X0/X8326/7 X0/173 gndd gndd NE3I L=3.5e-07 W=4.2e-07 AD=1.134e-13 AS=1.134e-13 PD=9.6e-07 PS=9.6e-07 m=1 
MX0/X8326/M3 gndd X0/706 X0/X8326/7 gndd NE3I L=3.5e-07 W=4.2e-07 AD=3.698e-13 AS=1.134e-13 PD=3.22e-06 PS=9.6e-07 m=1 
MX0/X8326/M4 X0/754 X0/X8326/9 X0/X8326/7 gndd NE3I L=3.5e-07 W=4.2e-07 AD=2.016e-13 AS=2.058e-13 PD=1.8e-06 PS=1.82e-06 m=1 
MX0/X8326/M5 X0/X8326/9 X0/173 vdd3 vdd3 PE3I L=3e-07 W=9e-07 AD=3.195e-13 AS=8.517e-13 PD=1.61e-06 PS=4.61e-06 m=1 
MX0/X8326/M6 vdd3 X0/706 X0/X8326/9 vdd3 PE3I L=3e-07 W=9e-07 AD=4.30855e-13 AS=3.195e-13 PD=1.83273e-06 PS=1.61e-06 m=1 
MX0/X8326/M7 X0/X8326/10 X0/173 vdd3 vdd3 PE3I L=3e-07 W=1.3e-06 AD=1.95e-13 AS=6.22345e-13 PD=1.6e-06 PS=2.64727e-06 m=1 
MX0/X8326/M8 X0/754 X0/706 X0/X8326/10 vdd3 PE3I L=3e-07 W=1.3e-06 AD=6.21324e-13 AS=1.95e-13 PD=2.52941e-06 PS=1.6e-06 m=1 
MX0/X8326/M9 vdd3 X0/X8326/9 X0/754 vdd3 PE3I L=3e-07 W=9.1e-07 AD=8.0675e-13 AS=4.34926e-13 PD=4.39e-06 PS=1.77059e-06 m=1 
MX0/X8327/M0 X0/X8327/8 X0/555 X0/X8327/9 gndd NE3I L=3.5e-07 W=4.2e-07 AD=5.25e-14 AS=2.016e-13 PD=6.7e-07 PS=1.8e-06 m=1 
MX0/X8327/M1 gndd X0/546 X0/X8327/8 gndd NE3I L=3.5e-07 W=4.2e-07 AD=1.134e-13 AS=5.25e-14 PD=9.6e-07 PS=6.7e-07 m=1 
MX0/X8327/M2 X0/X8327/7 X0/555 gndd gndd NE3I L=3.5e-07 W=4.2e-07 AD=1.134e-13 AS=1.134e-13 PD=9.6e-07 PS=9.6e-07 m=1 
MX0/X8327/M3 gndd X0/546 X0/X8327/7 gndd NE3I L=3.5e-07 W=4.2e-07 AD=3.698e-13 AS=1.134e-13 PD=3.22e-06 PS=9.6e-07 m=1 
MX0/X8327/M4 X0/922 X0/X8327/9 X0/X8327/7 gndd NE3I L=3.5e-07 W=4.2e-07 AD=2.016e-13 AS=2.058e-13 PD=1.8e-06 PS=1.82e-06 m=1 
MX0/X8327/M5 X0/X8327/9 X0/555 vdd3 vdd3 PE3I L=3e-07 W=9e-07 AD=3.195e-13 AS=8.517e-13 PD=1.61e-06 PS=4.61e-06 m=1 
MX0/X8327/M6 vdd3 X0/546 X0/X8327/9 vdd3 PE3I L=3e-07 W=9e-07 AD=4.30855e-13 AS=3.195e-13 PD=1.83273e-06 PS=1.61e-06 m=1 
MX0/X8327/M7 X0/X8327/10 X0/555 vdd3 vdd3 PE3I L=3e-07 W=1.3e-06 AD=1.95e-13 AS=6.22345e-13 PD=1.6e-06 PS=2.64727e-06 m=1 
MX0/X8327/M8 X0/922 X0/546 X0/X8327/10 vdd3 PE3I L=3e-07 W=1.3e-06 AD=6.21324e-13 AS=1.95e-13 PD=2.52941e-06 PS=1.6e-06 m=1 
MX0/X8327/M9 vdd3 X0/X8327/9 X0/922 vdd3 PE3I L=3e-07 W=9.1e-07 AD=8.0675e-13 AS=4.34926e-13 PD=4.39e-06 PS=1.77059e-06 m=1 
MX0/X8328/M0 X0/615 X0/1140 gndd gndd NE3I L=3.4986e-07 W=8.92071e-07 AD=2.37813e-13 AS=4.30337e-13 PD=1.42707e-06 PS=2.76707e-06 m=1 
MX0/X8328/M1 gndd X0/1316 X0/615 gndd NE3I L=3.4986e-07 W=8.92071e-07 AD=2.40287e-13 AS=2.37813e-13 PD=1.44207e-06 PS=1.42707e-06 m=1 
MX0/X8328/M2 X0/615 X0/621 gndd gndd NE3I L=3.4986e-07 W=8.92071e-07 AD=4.29162e-13 AS=2.40287e-13 PD=2.74707e-06 PS=1.44207e-06 m=1 
MX0/X8328/M3 X0/X8328/9 X0/1140 vdd3 vdd3 PE3I L=3e-07 W=1.41e-06 AD=2.1855e-13 AS=1.3994e-12 PD=1.72e-06 PS=5.15e-06 m=1 
MX0/X8328/M4 X0/X8328/8 X0/1316 X0/X8328/9 vdd3 PE3I L=3e-07 W=1.41e-06 AD=2.1855e-13 AS=2.1855e-13 PD=1.72e-06 PS=1.72e-06 m=1 
MX0/X8328/M5 X0/615 X0/621 X0/X8328/8 vdd3 PE3I L=3e-07 W=1.41e-06 AD=6.768e-13 AS=2.1855e-13 PD=3.78e-06 PS=1.72e-06 m=1 
MX0/X8329/M0 X0/X8329/8 X0/537 gndd gndd NE3I L=3.5e-07 W=8.9e-07 AD=1.1125e-13 AS=7.09e-13 PD=1.14e-06 PS=3.68e-06 m=1 
MX0/X8329/M1 X0/111 X0/1130 X0/X8329/8 gndd NE3I L=3.5e-07 W=8.9e-07 AD=2.403e-13 AS=1.1125e-13 PD=1.43e-06 PS=1.14e-06 m=1 
MX0/X8329/M2 X0/X8329/7 X0/1130 X0/111 gndd NE3I L=3.5e-07 W=8.9e-07 AD=1.1125e-13 AS=2.403e-13 PD=1.14e-06 PS=1.43e-06 m=1 
MX0/X8329/M3 gndd X0/537 X0/X8329/7 gndd NE3I L=3.5e-07 W=8.9e-07 AD=7.09e-13 AS=1.1125e-13 PD=3.68e-06 PS=1.14e-06 m=1 
MX0/X8329/M4 X0/111 X0/537 vdd3 vdd3 PE3I L=3e-07 W=1e-06 AD=2.7e-13 AS=8.172e-13 PD=1.54e-06 PS=4.22e-06 m=1 
MX0/X8329/M5 vdd3 X0/1130 X0/111 vdd3 PE3I L=3e-07 W=1e-06 AD=8.172e-13 AS=2.7e-13 PD=4.22e-06 PS=1.54e-06 m=1 
MX0/X8329/M6 X0/111 X0/1130 vdd3 vdd3 PE3I L=3e-07 W=1e-06 AD=2.7e-13 AS=8.172e-13 PD=1.54e-06 PS=4.22e-06 m=1 
MX0/X8329/M7 vdd3 X0/537 X0/111 vdd3 PE3I L=3e-07 W=1e-06 AD=8.172e-13 AS=2.7e-13 PD=4.22e-06 PS=1.54e-06 m=1 
MX0/X8330/M0 X0/X8330/8 X0/1123 gndd gndd NE3I L=3.5e-07 W=4.2e-07 AD=1.134e-13 AS=4.87734e-13 PD=9.6e-07 PS=2.24324e-06 m=1 
MX0/X8330/M1 gndd X0/589 X0/X8330/8 gndd NE3I L=3.5e-07 W=4.2e-07 AD=4.87734e-13 AS=1.134e-13 PD=2.24324e-06 PS=9.6e-07 m=1 
MX0/X8330/M2 X0/1293 X0/X8330/8 gndd gndd NE3I L=3.5e-07 W=8.9e-07 AD=2.403e-13 AS=1.03353e-12 PD=1.43e-06 PS=4.75353e-06 m=1 
MX0/X8330/M3 gndd X0/585 X0/1293 gndd NE3I L=3.5e-07 W=8.9e-07 AD=6.098e-13 AS=2.403e-13 PD=3.52e-06 PS=1.43e-06 m=1 
MX0/X8330/M4 X0/X8330/10 X0/1123 vdd3 vdd3 PE3I L=3e-07 W=8.5e-07 AD=1.0625e-13 AS=1.0178e-12 PD=1.1e-06 PS=4.78e-06 m=1 
MX0/X8330/M5 X0/X8330/8 X0/589 X0/X8330/10 vdd3 PE3I L=3e-07 W=8.5e-07 AD=4.505e-13 AS=1.0625e-13 PD=2.76e-06 PS=1.1e-06 m=1 
MX0/X8330/M6 X0/X8330/9 X0/X8330/8 X0/1293 vdd3 PE3I L=3e-07 W=1.41e-06 AD=1.7625e-13 AS=6.768e-13 PD=1.66e-06 PS=3.78e-06 m=1 
MX0/X8330/M7 vdd3 X0/585 X0/X8330/9 vdd3 PE3I L=3e-07 W=1.41e-06 AD=9.682e-13 AS=1.7625e-13 PD=4.66e-06 PS=1.66e-06 m=1 
MX0/X8331/M0 X0/X8331/8 X0/966 gndd gndd NE3I L=3.5e-07 W=4.2e-07 AD=1.134e-13 AS=4.87734e-13 PD=9.6e-07 PS=2.24324e-06 m=1 
MX0/X8331/M1 gndd X0/662 X0/X8331/8 gndd NE3I L=3.5e-07 W=4.2e-07 AD=4.87734e-13 AS=1.134e-13 PD=2.24324e-06 PS=9.6e-07 m=1 
MX0/X8331/M2 X0/1161 X0/X8331/8 gndd gndd NE3I L=3.5e-07 W=8.9e-07 AD=2.403e-13 AS=1.03353e-12 PD=1.43e-06 PS=4.75353e-06 m=1 
MX0/X8331/M3 gndd X0/1365 X0/1161 gndd NE3I L=3.5e-07 W=8.9e-07 AD=6.098e-13 AS=2.403e-13 PD=3.52e-06 PS=1.43e-06 m=1 
MX0/X8331/M4 X0/X8331/10 X0/966 vdd3 vdd3 PE3I L=3e-07 W=8.5e-07 AD=1.0625e-13 AS=1.0178e-12 PD=1.1e-06 PS=4.78e-06 m=1 
MX0/X8331/M5 X0/X8331/8 X0/662 X0/X8331/10 vdd3 PE3I L=3e-07 W=8.5e-07 AD=4.505e-13 AS=1.0625e-13 PD=2.76e-06 PS=1.1e-06 m=1 
MX0/X8331/M6 X0/X8331/9 X0/X8331/8 X0/1161 vdd3 PE3I L=3e-07 W=1.41e-06 AD=1.7625e-13 AS=6.768e-13 PD=1.66e-06 PS=3.78e-06 m=1 
MX0/X8331/M7 vdd3 X0/1365 X0/X8331/9 vdd3 PE3I L=3e-07 W=1.41e-06 AD=9.682e-13 AS=1.7625e-13 PD=4.66e-06 PS=1.66e-06 m=1 
MX0/X8332/M0 gndd X0/X8332/17 X0/X8332/19 gndd NE3I L=3.5e-07 W=6.6e-07 AD=1.94849e-13 AS=3.168e-13 PD=1.21781e-06 PS=2.28e-06 m=1 
MX0/X8332/M1 X0/X8332/10 X0/590 gndd gndd NE3I L=3.5e-07 W=8.9e-07 AD=3.28952e-13 AS=2.62751e-13 PD=2.36956e-06 PS=1.64219e-06 m=1 
MX0/X8332/M2 X0/X8332/18 X0/X8332/19 X0/X8332/10 gndd NE3I L=3.5e-07 W=4.2e-07 AD=5.25e-14 AS=1.55236e-13 PD=6.7e-07 PS=1.11822e-06 m=1 
MX0/X8332/M3 X0/X8332/17 X0/X8332/9 X0/X8332/18 gndd NE3I L=3.5e-07 W=4.2e-07 AD=1.134e-13 AS=5.25e-14 PD=9.6e-07 PS=6.7e-07 m=1 
MX0/X8332/M4 X0/X8332/16 X0/X8332/15 X0/X8332/17 gndd NE3I L=3.5e-07 W=4.2e-07 AD=5.25e-14 AS=1.134e-13 PD=6.7e-07 PS=9.6e-07 m=1 
MX0/X8332/M5 X0/X8332/10 X0/1135 X0/X8332/16 gndd NE3I L=3.5e-07 W=4.2e-07 AD=2.835e-13 AS=5.25e-14 PD=2.19e-06 PS=6.7e-07 m=1 
MX0/X8332/M6 gndd X0/116 X0/X8332/15 gndd NE3I L=3.5e-07 W=4.2e-07 AD=1.659e-13 AS=2.016e-13 PD=1.21e-06 PS=1.8e-06 m=1 
MX0/X8332/M7 X0/X8332/9 X0/X8332/15 gndd gndd NE3I L=3.5e-07 W=4.2e-07 AD=2.95e-13 AS=1.659e-13 PD=2.23e-06 PS=1.21e-06 m=1 
MX0/X8332/M8 X0/X8332/14 X0/X8332/19 X0/X8332/8 gndd NE3I L=3.5e-07 W=4.2e-07 AD=5.25e-14 AS=2.016e-13 PD=6.7e-07 PS=1.8e-06 m=1 
MX0/X8332/M9 X0/X8332/13 X0/X8332/9 X0/X8332/14 gndd NE3I L=3.5e-07 W=4.2e-07 AD=1.134e-13 AS=5.25e-14 PD=9.6e-07 PS=6.7e-07 m=1 
MX0/X8332/M10 X0/X8332/12 X0/X8332/15 X0/X8332/13 gndd NE3I L=3.5e-07 W=4.2e-07 AD=5.25e-14 AS=1.134e-13 PD=6.7e-07 PS=9.6e-07 m=1 
MX0/X8332/M11 X0/X8332/8 X0/X8332/11 X0/X8332/12 gndd NE3I L=3.5e-07 W=4.2e-07 AD=1.55817e-13 AS=5.25e-14 PD=9.68244e-07 PS=6.7e-07 m=1 
MX0/X8332/M12 gndd X0/590 X0/X8332/8 gndd NE3I L=3.5e-07 W=8.9e-07 AD=5.94987e-13 AS=3.30183e-13 PD=3.35209e-06 PS=2.05176e-06 m=1 
MX0/X8332/M13 X0/X8332/11 X0/X8332/13 gndd gndd NE3I L=3.5e-07 W=6.6e-07 AD=3.168e-13 AS=4.41226e-13 PD=2.28e-06 PS=2.48582e-06 m=1 
MX0/X8332/M14 X0/593 X0/X8332/13 gndd gndd NE3I L=3.5e-07 W=8.9e-07 AD=2.403e-13 AS=5.94987e-13 PD=1.43e-06 PS=3.35209e-06 m=1 
MX0/X8332/M15 gndd X0/X8332/13 X0/593 gndd NE3I L=3.5e-07 W=8.9e-07 AD=4.272e-13 AS=2.403e-13 PD=2.74e-06 PS=1.43e-06 m=1 
MX0/X8332/M16 vdd3 X0/X8332/17 X0/X8332/19 vdd3 PE3I L=3e-07 W=1e-06 AD=2.97674e-13 AS=4.8e-13 PD=1.7907e-06 PS=2.96e-06 m=1 
MX0/X8332/M17 X0/X8332/17 X0/590 vdd3 vdd3 PE3I L=3e-07 W=7.2e-07 AD=3.136e-13 AS=2.14326e-13 PD=2.4e-06 PS=1.2893e-06 m=1 
MX0/X8332/M18 X0/X8332/23 X0/X8332/19 vdd3 vdd3 PE3I L=3e-07 W=4.2e-07 AD=5.25e-14 AS=5.1875e-13 PD=6.7e-07 PS=2.99e-06 m=1 
MX0/X8332/M19 X0/X8332/17 X0/X8332/15 X0/X8332/23 vdd3 PE3I L=3e-07 W=4.2e-07 AD=1.21617e-13 AS=5.25e-14 PD=9.13043e-07 PS=6.7e-07 m=1 
MX0/X8332/M20 X0/X8332/22 X0/X8332/9 X0/X8332/17 vdd3 PE3I L=3e-07 W=9.6e-07 AD=1.2e-13 AS=2.77983e-13 PD=1.21e-06 PS=2.08696e-06 m=1 
MX0/X8332/M21 vdd3 X0/1135 X0/X8332/22 vdd3 PE3I L=3e-07 W=9.6e-07 AD=5.00229e-13 AS=1.2e-13 PD=2.34286e-06 PS=1.21e-06 m=1 
MX0/X8332/M22 X0/X8332/15 X0/116 vdd3 vdd3 PE3I L=3e-07 W=7.2e-07 AD=4.56625e-13 AS=3.75171e-13 PD=2.86e-06 PS=1.75714e-06 m=1 
MX0/X8332/M23 vdd3 X0/X8332/15 X0/X8332/9 vdd3 PE3I L=3e-07 W=7.2e-07 AD=3.92547e-13 AS=3.528e-13 PD=1.8586e-06 PS=2.42e-06 m=1 
MX0/X8332/M24 X0/X8332/21 X0/X8332/19 vdd3 vdd3 PE3I L=3e-07 W=1e-06 AD=1.25e-13 AS=5.45203e-13 PD=1.25e-06 PS=2.5814e-06 m=1 
MX0/X8332/M25 X0/X8332/13 X0/X8332/15 X0/X8332/21 vdd3 PE3I L=3e-07 W=1e-06 AD=2.96338e-13 AS=1.25e-13 PD=2.19718e-06 PS=1.25e-06 m=1 
MX0/X8332/M26 X0/X8332/20 X0/X8332/9 X0/X8332/13 vdd3 PE3I L=3e-07 W=4.2e-07 AD=5.25e-14 AS=1.24462e-13 PD=6.7e-07 PS=9.22817e-07 m=1 
MX0/X8332/M27 vdd3 X0/X8332/11 X0/X8332/20 vdd3 PE3I L=3e-07 W=4.2e-07 AD=3.93439e-13 AS=5.25e-14 PD=1.64096e-06 PS=6.7e-07 m=1 
MX0/X8332/M28 vdd3 X0/590 X0/X8332/13 vdd3 PE3I L=3e-07 W=7.2e-07 AD=6.74468e-13 AS=2.976e-13 PD=2.81307e-06 PS=2.4e-06 m=1 
MX0/X8332/M29 X0/X8332/11 X0/X8332/13 vdd3 vdd3 PE3I L=3e-07 W=1e-06 AD=4.8e-13 AS=9.36761e-13 PD=2.96e-06 PS=3.90704e-06 m=1 
MX0/X8332/M30 X0/593 X0/X8332/13 vdd3 vdd3 PE3I L=3e-07 W=1.41e-06 AD=3.807e-13 AS=1.32083e-12 PD=1.95e-06 PS=5.50893e-06 m=1 
MX0/X8332/M31 vdd3 X0/X8332/13 X0/593 vdd3 PE3I L=3e-07 W=1.41e-06 AD=8.802e-13 AS=3.807e-13 PD=4.56e-06 PS=1.95e-06 m=1 
MX0/X8333/M0 X0/X8333/6 X0/1366 gndd gndd NE3I L=3.5e-07 W=8.9e-07 AD=2.403e-13 AS=6.098e-13 PD=1.43e-06 PS=3.52e-06 m=1 
MX0/X8333/M1 gndd X0/1366 X0/X8333/6 gndd NE3I L=3.5e-07 W=8.9e-07 AD=3.804e-13 AS=2.403e-13 PD=1.91e-06 PS=1.43e-06 m=1 
MX0/X8333/M2 4 X0/X8333/6 gndd gndd NE3I L=3.5e-07 W=8.9e-07 AD=2.403e-13 AS=3.804e-13 PD=1.43e-06 PS=1.91e-06 m=1 
MX0/X8333/M3 gndd X0/X8333/6 4 gndd NE3I L=3.5e-07 W=8.9e-07 AD=3.494e-13 AS=2.403e-13 PD=1.86e-06 PS=1.43e-06 m=1 
MX0/X8333/M4 4 X0/X8333/6 gndd gndd NE3I L=3.5e-07 W=8.9e-07 AD=2.403e-13 AS=3.494e-13 PD=1.43e-06 PS=1.86e-06 m=1 
MX0/X8333/M5 gndd X0/X8333/6 4 gndd NE3I L=3.5e-07 W=8.9e-07 AD=3.494e-13 AS=2.403e-13 PD=1.86e-06 PS=1.43e-06 m=1 
MX0/X8333/M6 4 X0/X8333/6 gndd gndd NE3I L=3.5e-07 W=8.9e-07 AD=2.403e-13 AS=3.494e-13 PD=1.43e-06 PS=1.86e-06 m=1 
MX0/X8333/M7 gndd X0/X8333/6 4 gndd NE3I L=3.5e-07 W=8.9e-07 AD=8.702e-13 AS=2.403e-13 PD=3.94e-06 PS=1.43e-06 m=1 
MX0/X8333/M8 vdd3 X0/1366 X0/X8333/6 vdd3 PE3I L=3.00566e-07 W=1.47006e-06 AD=2.83187e-13 AS=5.51013e-13 PD=1.86506e-06 PS=3.69506e-06 m=1 
MX0/X8333/M9 X0/X8333/6 X0/1366 vdd3 vdd3 PE3I L=3.00566e-07 W=1.47006e-06 AD=2.61963e-13 AS=2.83187e-13 PD=1.87506e-06 PS=1.86506e-06 m=1 
MX0/X8333/M10 vdd3 X0/1366 X0/X8333/6 vdd3 PE3I L=3.00566e-07 W=1.47006e-06 AD=2.83187e-13 AS=2.61963e-13 PD=1.86506e-06 PS=1.87506e-06 m=1 
MX0/X8333/M11 4 X0/X8333/6 vdd3 vdd3 PE3I L=3.00566e-07 W=1.47006e-06 AD=2.61963e-13 AS=2.83187e-13 PD=1.87506e-06 PS=1.86506e-06 m=1 
MX0/X8333/M12 vdd3 X0/X8333/6 4 vdd3 PE3I L=3.00566e-07 W=1.47006e-06 AD=2.83187e-13 AS=2.61963e-13 PD=1.86506e-06 PS=1.87506e-06 m=1 
MX0/X8333/M13 4 X0/X8333/6 vdd3 vdd3 PE3I L=3.00566e-07 W=1.47006e-06 AD=2.61963e-13 AS=2.83187e-13 PD=1.87506e-06 PS=1.86506e-06 m=1 
MX0/X8333/M14 vdd3 X0/X8333/6 4 vdd3 PE3I L=3.00566e-07 W=1.47006e-06 AD=2.83187e-13 AS=2.61963e-13 PD=1.86506e-06 PS=1.87506e-06 m=1 
MX0/X8333/M15 4 X0/X8333/6 vdd3 vdd3 PE3I L=3.00566e-07 W=1.47006e-06 AD=2.61963e-13 AS=2.83187e-13 PD=1.87506e-06 PS=1.86506e-06 m=1 
MX0/X8333/M16 vdd3 X0/X8333/6 4 vdd3 PE3I L=3.00566e-07 W=1.47006e-06 AD=2.83187e-13 AS=2.61963e-13 PD=1.86506e-06 PS=1.87506e-06 m=1 
MX0/X8333/M17 4 X0/X8333/6 vdd3 vdd3 PE3I L=3.00566e-07 W=1.47006e-06 AD=2.61963e-13 AS=2.83187e-13 PD=1.87506e-06 PS=1.86506e-06 m=1 
MX0/X8333/M18 vdd3 X0/X8333/6 4 vdd3 PE3I L=3.00566e-07 W=1.47006e-06 AD=5.79287e-13 AS=2.61963e-13 PD=3.69506e-06 PS=1.87506e-06 m=1 
MX0/X8334/M0 X0/X8334/6 X0/1367 gndd gndd NE3I L=3.5e-07 W=8.9e-07 AD=2.403e-13 AS=6.098e-13 PD=1.43e-06 PS=3.52e-06 m=1 
MX0/X8334/M1 gndd X0/1367 X0/X8334/6 gndd NE3I L=3.5e-07 W=8.9e-07 AD=3.804e-13 AS=2.403e-13 PD=1.91e-06 PS=1.43e-06 m=1 
MX0/X8334/M2 8 X0/X8334/6 gndd gndd NE3I L=3.5e-07 W=8.9e-07 AD=2.403e-13 AS=3.804e-13 PD=1.43e-06 PS=1.91e-06 m=1 
MX0/X8334/M3 gndd X0/X8334/6 8 gndd NE3I L=3.5e-07 W=8.9e-07 AD=3.494e-13 AS=2.403e-13 PD=1.86e-06 PS=1.43e-06 m=1 
MX0/X8334/M4 8 X0/X8334/6 gndd gndd NE3I L=3.5e-07 W=8.9e-07 AD=2.403e-13 AS=3.494e-13 PD=1.43e-06 PS=1.86e-06 m=1 
MX0/X8334/M5 gndd X0/X8334/6 8 gndd NE3I L=3.5e-07 W=8.9e-07 AD=3.494e-13 AS=2.403e-13 PD=1.86e-06 PS=1.43e-06 m=1 
MX0/X8334/M6 8 X0/X8334/6 gndd gndd NE3I L=3.5e-07 W=8.9e-07 AD=2.403e-13 AS=3.494e-13 PD=1.43e-06 PS=1.86e-06 m=1 
MX0/X8334/M7 gndd X0/X8334/6 8 gndd NE3I L=3.5e-07 W=8.9e-07 AD=8.702e-13 AS=2.403e-13 PD=3.94e-06 PS=1.43e-06 m=1 
MX0/X8334/M8 vdd3 X0/1367 X0/X8334/6 vdd3 PE3I L=3.00566e-07 W=1.47006e-06 AD=2.83187e-13 AS=5.51013e-13 PD=1.86506e-06 PS=3.69506e-06 m=1 
MX0/X8334/M9 X0/X8334/6 X0/1367 vdd3 vdd3 PE3I L=3.00566e-07 W=1.47006e-06 AD=2.61963e-13 AS=2.83187e-13 PD=1.87506e-06 PS=1.86506e-06 m=1 
MX0/X8334/M10 vdd3 X0/1367 X0/X8334/6 vdd3 PE3I L=3.00566e-07 W=1.47006e-06 AD=2.83187e-13 AS=2.61963e-13 PD=1.86506e-06 PS=1.87506e-06 m=1 
MX0/X8334/M11 8 X0/X8334/6 vdd3 vdd3 PE3I L=3.00566e-07 W=1.47006e-06 AD=2.61963e-13 AS=2.83187e-13 PD=1.87506e-06 PS=1.86506e-06 m=1 
MX0/X8334/M12 vdd3 X0/X8334/6 8 vdd3 PE3I L=3.00566e-07 W=1.47006e-06 AD=2.83187e-13 AS=2.61963e-13 PD=1.86506e-06 PS=1.87506e-06 m=1 
MX0/X8334/M13 8 X0/X8334/6 vdd3 vdd3 PE3I L=3.00566e-07 W=1.47006e-06 AD=2.61963e-13 AS=2.83187e-13 PD=1.87506e-06 PS=1.86506e-06 m=1 
MX0/X8334/M14 vdd3 X0/X8334/6 8 vdd3 PE3I L=3.00566e-07 W=1.47006e-06 AD=2.83187e-13 AS=2.61963e-13 PD=1.86506e-06 PS=1.87506e-06 m=1 
MX0/X8334/M15 8 X0/X8334/6 vdd3 vdd3 PE3I L=3.00566e-07 W=1.47006e-06 AD=2.61963e-13 AS=2.83187e-13 PD=1.87506e-06 PS=1.86506e-06 m=1 
MX0/X8334/M16 vdd3 X0/X8334/6 8 vdd3 PE3I L=3.00566e-07 W=1.47006e-06 AD=2.83187e-13 AS=2.61963e-13 PD=1.86506e-06 PS=1.87506e-06 m=1 
MX0/X8334/M17 8 X0/X8334/6 vdd3 vdd3 PE3I L=3.00566e-07 W=1.47006e-06 AD=2.61963e-13 AS=2.83187e-13 PD=1.87506e-06 PS=1.86506e-06 m=1 
MX0/X8334/M18 vdd3 X0/X8334/6 8 vdd3 PE3I L=3.00566e-07 W=1.47006e-06 AD=5.79287e-13 AS=2.61963e-13 PD=3.69506e-06 PS=1.87506e-06 m=1 
MX0/X8335/M0 X0/X8335/6 X0/231 gndd gndd NE3I L=3.5e-07 W=8.9e-07 AD=2.403e-13 AS=6.098e-13 PD=1.43e-06 PS=3.52e-06 m=1 
MX0/X8335/M1 gndd X0/231 X0/X8335/6 gndd NE3I L=3.5e-07 W=8.9e-07 AD=3.804e-13 AS=2.403e-13 PD=1.91e-06 PS=1.43e-06 m=1 
MX0/X8335/M2 X0/258 X0/X8335/6 gndd gndd NE3I L=3.5e-07 W=8.9e-07 AD=2.403e-13 AS=3.804e-13 PD=1.43e-06 PS=1.91e-06 m=1 
MX0/X8335/M3 gndd X0/X8335/6 X0/258 gndd NE3I L=3.5e-07 W=8.9e-07 AD=3.494e-13 AS=2.403e-13 PD=1.86e-06 PS=1.43e-06 m=1 
MX0/X8335/M4 X0/258 X0/X8335/6 gndd gndd NE3I L=3.5e-07 W=8.9e-07 AD=2.403e-13 AS=3.494e-13 PD=1.43e-06 PS=1.86e-06 m=1 
MX0/X8335/M5 gndd X0/X8335/6 X0/258 gndd NE3I L=3.5e-07 W=8.9e-07 AD=3.494e-13 AS=2.403e-13 PD=1.86e-06 PS=1.43e-06 m=1 
MX0/X8335/M6 X0/258 X0/X8335/6 gndd gndd NE3I L=3.5e-07 W=8.9e-07 AD=2.403e-13 AS=3.494e-13 PD=1.43e-06 PS=1.86e-06 m=1 
MX0/X8335/M7 gndd X0/X8335/6 X0/258 gndd NE3I L=3.5e-07 W=8.9e-07 AD=8.702e-13 AS=2.403e-13 PD=3.94e-06 PS=1.43e-06 m=1 
MX0/X8335/M8 vdd3 X0/231 X0/X8335/6 vdd3 PE3I L=3.00566e-07 W=1.47006e-06 AD=2.83187e-13 AS=5.51013e-13 PD=1.86506e-06 PS=3.69506e-06 m=1 
MX0/X8335/M9 X0/X8335/6 X0/231 vdd3 vdd3 PE3I L=3.00566e-07 W=1.47006e-06 AD=2.61963e-13 AS=2.83187e-13 PD=1.87506e-06 PS=1.86506e-06 m=1 
MX0/X8335/M10 vdd3 X0/231 X0/X8335/6 vdd3 PE3I L=3.00566e-07 W=1.47006e-06 AD=2.83187e-13 AS=2.61963e-13 PD=1.86506e-06 PS=1.87506e-06 m=1 
MX0/X8335/M11 X0/258 X0/X8335/6 vdd3 vdd3 PE3I L=3.00566e-07 W=1.47006e-06 AD=2.61963e-13 AS=2.83187e-13 PD=1.87506e-06 PS=1.86506e-06 m=1 
MX0/X8335/M12 vdd3 X0/X8335/6 X0/258 vdd3 PE3I L=3.00566e-07 W=1.47006e-06 AD=2.83187e-13 AS=2.61963e-13 PD=1.86506e-06 PS=1.87506e-06 m=1 
MX0/X8335/M13 X0/258 X0/X8335/6 vdd3 vdd3 PE3I L=3.00566e-07 W=1.47006e-06 AD=2.61963e-13 AS=2.83187e-13 PD=1.87506e-06 PS=1.86506e-06 m=1 
MX0/X8335/M14 vdd3 X0/X8335/6 X0/258 vdd3 PE3I L=3.00566e-07 W=1.47006e-06 AD=2.83187e-13 AS=2.61963e-13 PD=1.86506e-06 PS=1.87506e-06 m=1 
MX0/X8335/M15 X0/258 X0/X8335/6 vdd3 vdd3 PE3I L=3.00566e-07 W=1.47006e-06 AD=2.61963e-13 AS=2.83187e-13 PD=1.87506e-06 PS=1.86506e-06 m=1 
MX0/X8335/M16 vdd3 X0/X8335/6 X0/258 vdd3 PE3I L=3.00566e-07 W=1.47006e-06 AD=2.83187e-13 AS=2.61963e-13 PD=1.86506e-06 PS=1.87506e-06 m=1 
MX0/X8335/M17 X0/258 X0/X8335/6 vdd3 vdd3 PE3I L=3.00566e-07 W=1.47006e-06 AD=2.61963e-13 AS=2.83187e-13 PD=1.87506e-06 PS=1.86506e-06 m=1 
MX0/X8335/M18 vdd3 X0/X8335/6 X0/258 vdd3 PE3I L=3.00566e-07 W=1.47006e-06 AD=5.79287e-13 AS=2.61963e-13 PD=3.69506e-06 PS=1.87506e-06 m=1 
MX0/X8336/M0 X0/X8336/6 X0/231 gndd gndd NE3I L=3.5e-07 W=8.9e-07 AD=2.403e-13 AS=6.098e-13 PD=1.43e-06 PS=3.52e-06 m=1 
MX0/X8336/M1 gndd X0/231 X0/X8336/6 gndd NE3I L=3.5e-07 W=8.9e-07 AD=3.804e-13 AS=2.403e-13 PD=1.91e-06 PS=1.43e-06 m=1 
MX0/X8336/M2 X0/257 X0/X8336/6 gndd gndd NE3I L=3.5e-07 W=8.9e-07 AD=2.403e-13 AS=3.804e-13 PD=1.43e-06 PS=1.91e-06 m=1 
MX0/X8336/M3 gndd X0/X8336/6 X0/257 gndd NE3I L=3.5e-07 W=8.9e-07 AD=3.494e-13 AS=2.403e-13 PD=1.86e-06 PS=1.43e-06 m=1 
MX0/X8336/M4 X0/257 X0/X8336/6 gndd gndd NE3I L=3.5e-07 W=8.9e-07 AD=2.403e-13 AS=3.494e-13 PD=1.43e-06 PS=1.86e-06 m=1 
MX0/X8336/M5 gndd X0/X8336/6 X0/257 gndd NE3I L=3.5e-07 W=8.9e-07 AD=3.494e-13 AS=2.403e-13 PD=1.86e-06 PS=1.43e-06 m=1 
MX0/X8336/M6 X0/257 X0/X8336/6 gndd gndd NE3I L=3.5e-07 W=8.9e-07 AD=2.403e-13 AS=3.494e-13 PD=1.43e-06 PS=1.86e-06 m=1 
MX0/X8336/M7 gndd X0/X8336/6 X0/257 gndd NE3I L=3.5e-07 W=8.9e-07 AD=8.702e-13 AS=2.403e-13 PD=3.94e-06 PS=1.43e-06 m=1 
MX0/X8336/M8 vdd3 X0/231 X0/X8336/6 vdd3 PE3I L=3.00566e-07 W=1.47006e-06 AD=2.83187e-13 AS=5.51013e-13 PD=1.86506e-06 PS=3.69506e-06 m=1 
MX0/X8336/M9 X0/X8336/6 X0/231 vdd3 vdd3 PE3I L=3.00566e-07 W=1.47006e-06 AD=2.61963e-13 AS=2.83187e-13 PD=1.87506e-06 PS=1.86506e-06 m=1 
MX0/X8336/M10 vdd3 X0/231 X0/X8336/6 vdd3 PE3I L=3.00566e-07 W=1.47006e-06 AD=2.83187e-13 AS=2.61963e-13 PD=1.86506e-06 PS=1.87506e-06 m=1 
MX0/X8336/M11 X0/257 X0/X8336/6 vdd3 vdd3 PE3I L=3.00566e-07 W=1.47006e-06 AD=2.61963e-13 AS=2.83187e-13 PD=1.87506e-06 PS=1.86506e-06 m=1 
MX0/X8336/M12 vdd3 X0/X8336/6 X0/257 vdd3 PE3I L=3.00566e-07 W=1.47006e-06 AD=2.83187e-13 AS=2.61963e-13 PD=1.86506e-06 PS=1.87506e-06 m=1 
MX0/X8336/M13 X0/257 X0/X8336/6 vdd3 vdd3 PE3I L=3.00566e-07 W=1.47006e-06 AD=2.61963e-13 AS=2.83187e-13 PD=1.87506e-06 PS=1.86506e-06 m=1 
MX0/X8336/M14 vdd3 X0/X8336/6 X0/257 vdd3 PE3I L=3.00566e-07 W=1.47006e-06 AD=2.83187e-13 AS=2.61963e-13 PD=1.86506e-06 PS=1.87506e-06 m=1 
MX0/X8336/M15 X0/257 X0/X8336/6 vdd3 vdd3 PE3I L=3.00566e-07 W=1.47006e-06 AD=2.61963e-13 AS=2.83187e-13 PD=1.87506e-06 PS=1.86506e-06 m=1 
MX0/X8336/M16 vdd3 X0/X8336/6 X0/257 vdd3 PE3I L=3.00566e-07 W=1.47006e-06 AD=2.83187e-13 AS=2.61963e-13 PD=1.86506e-06 PS=1.87506e-06 m=1 
MX0/X8336/M17 X0/257 X0/X8336/6 vdd3 vdd3 PE3I L=3.00566e-07 W=1.47006e-06 AD=2.61963e-13 AS=2.83187e-13 PD=1.87506e-06 PS=1.86506e-06 m=1 
MX0/X8336/M18 vdd3 X0/X8336/6 X0/257 vdd3 PE3I L=3.00566e-07 W=1.47006e-06 AD=5.79287e-13 AS=2.61963e-13 PD=3.69506e-06 PS=1.87506e-06 m=1 
MX0/X8337/M0 X0/X8337/6 X0/267 gndd gndd NE3I L=3.5e-07 W=8.9e-07 AD=2.403e-13 AS=6.098e-13 PD=1.43e-06 PS=3.52e-06 m=1 
MX0/X8337/M1 gndd X0/267 X0/X8337/6 gndd NE3I L=3.5e-07 W=8.9e-07 AD=3.804e-13 AS=2.403e-13 PD=1.91e-06 PS=1.43e-06 m=1 
MX0/X8337/M2 X0/84 X0/X8337/6 gndd gndd NE3I L=3.5e-07 W=8.9e-07 AD=2.403e-13 AS=3.804e-13 PD=1.43e-06 PS=1.91e-06 m=1 
MX0/X8337/M3 gndd X0/X8337/6 X0/84 gndd NE3I L=3.5e-07 W=8.9e-07 AD=3.494e-13 AS=2.403e-13 PD=1.86e-06 PS=1.43e-06 m=1 
MX0/X8337/M4 X0/84 X0/X8337/6 gndd gndd NE3I L=3.5e-07 W=8.9e-07 AD=2.403e-13 AS=3.494e-13 PD=1.43e-06 PS=1.86e-06 m=1 
MX0/X8337/M5 gndd X0/X8337/6 X0/84 gndd NE3I L=3.5e-07 W=8.9e-07 AD=3.494e-13 AS=2.403e-13 PD=1.86e-06 PS=1.43e-06 m=1 
MX0/X8337/M6 X0/84 X0/X8337/6 gndd gndd NE3I L=3.5e-07 W=8.9e-07 AD=2.403e-13 AS=3.494e-13 PD=1.43e-06 PS=1.86e-06 m=1 
MX0/X8337/M7 gndd X0/X8337/6 X0/84 gndd NE3I L=3.5e-07 W=8.9e-07 AD=8.702e-13 AS=2.403e-13 PD=3.94e-06 PS=1.43e-06 m=1 
MX0/X8337/M8 vdd3 X0/267 X0/X8337/6 vdd3 PE3I L=3.00566e-07 W=1.47006e-06 AD=2.83187e-13 AS=5.51013e-13 PD=1.86506e-06 PS=3.69506e-06 m=1 
MX0/X8337/M9 X0/X8337/6 X0/267 vdd3 vdd3 PE3I L=3.00566e-07 W=1.47006e-06 AD=2.61963e-13 AS=2.83187e-13 PD=1.87506e-06 PS=1.86506e-06 m=1 
MX0/X8337/M10 vdd3 X0/267 X0/X8337/6 vdd3 PE3I L=3.00566e-07 W=1.47006e-06 AD=2.83187e-13 AS=2.61963e-13 PD=1.86506e-06 PS=1.87506e-06 m=1 
MX0/X8337/M11 X0/84 X0/X8337/6 vdd3 vdd3 PE3I L=3.00566e-07 W=1.47006e-06 AD=2.61963e-13 AS=2.83187e-13 PD=1.87506e-06 PS=1.86506e-06 m=1 
MX0/X8337/M12 vdd3 X0/X8337/6 X0/84 vdd3 PE3I L=3.00566e-07 W=1.47006e-06 AD=2.83187e-13 AS=2.61963e-13 PD=1.86506e-06 PS=1.87506e-06 m=1 
MX0/X8337/M13 X0/84 X0/X8337/6 vdd3 vdd3 PE3I L=3.00566e-07 W=1.47006e-06 AD=2.61963e-13 AS=2.83187e-13 PD=1.87506e-06 PS=1.86506e-06 m=1 
MX0/X8337/M14 vdd3 X0/X8337/6 X0/84 vdd3 PE3I L=3.00566e-07 W=1.47006e-06 AD=2.83187e-13 AS=2.61963e-13 PD=1.86506e-06 PS=1.87506e-06 m=1 
MX0/X8337/M15 X0/84 X0/X8337/6 vdd3 vdd3 PE3I L=3.00566e-07 W=1.47006e-06 AD=2.61963e-13 AS=2.83187e-13 PD=1.87506e-06 PS=1.86506e-06 m=1 
MX0/X8337/M16 vdd3 X0/X8337/6 X0/84 vdd3 PE3I L=3.00566e-07 W=1.47006e-06 AD=2.83187e-13 AS=2.61963e-13 PD=1.86506e-06 PS=1.87506e-06 m=1 
MX0/X8337/M17 X0/84 X0/X8337/6 vdd3 vdd3 PE3I L=3.00566e-07 W=1.47006e-06 AD=2.61963e-13 AS=2.83187e-13 PD=1.87506e-06 PS=1.86506e-06 m=1 
MX0/X8337/M18 vdd3 X0/X8337/6 X0/84 vdd3 PE3I L=3.00566e-07 W=1.47006e-06 AD=5.79287e-13 AS=2.61963e-13 PD=3.69506e-06 PS=1.87506e-06 m=1 
MX0/X8338/M0 X0/X8338/6 X0/267 gndd gndd NE3I L=3.5e-07 W=8.9e-07 AD=2.403e-13 AS=6.098e-13 PD=1.43e-06 PS=3.52e-06 m=1 
MX0/X8338/M1 gndd X0/267 X0/X8338/6 gndd NE3I L=3.5e-07 W=8.9e-07 AD=3.804e-13 AS=2.403e-13 PD=1.91e-06 PS=1.43e-06 m=1 
MX0/X8338/M2 X0/92 X0/X8338/6 gndd gndd NE3I L=3.5e-07 W=8.9e-07 AD=2.403e-13 AS=3.804e-13 PD=1.43e-06 PS=1.91e-06 m=1 
MX0/X8338/M3 gndd X0/X8338/6 X0/92 gndd NE3I L=3.5e-07 W=8.9e-07 AD=3.494e-13 AS=2.403e-13 PD=1.86e-06 PS=1.43e-06 m=1 
MX0/X8338/M4 X0/92 X0/X8338/6 gndd gndd NE3I L=3.5e-07 W=8.9e-07 AD=2.403e-13 AS=3.494e-13 PD=1.43e-06 PS=1.86e-06 m=1 
MX0/X8338/M5 gndd X0/X8338/6 X0/92 gndd NE3I L=3.5e-07 W=8.9e-07 AD=3.494e-13 AS=2.403e-13 PD=1.86e-06 PS=1.43e-06 m=1 
MX0/X8338/M6 X0/92 X0/X8338/6 gndd gndd NE3I L=3.5e-07 W=8.9e-07 AD=2.403e-13 AS=3.494e-13 PD=1.43e-06 PS=1.86e-06 m=1 
MX0/X8338/M7 gndd X0/X8338/6 X0/92 gndd NE3I L=3.5e-07 W=8.9e-07 AD=8.702e-13 AS=2.403e-13 PD=3.94e-06 PS=1.43e-06 m=1 
MX0/X8338/M8 vdd3 X0/267 X0/X8338/6 vdd3 PE3I L=3.00566e-07 W=1.47006e-06 AD=2.83187e-13 AS=5.51013e-13 PD=1.86506e-06 PS=3.69506e-06 m=1 
MX0/X8338/M9 X0/X8338/6 X0/267 vdd3 vdd3 PE3I L=3.00566e-07 W=1.47006e-06 AD=2.61963e-13 AS=2.83187e-13 PD=1.87506e-06 PS=1.86506e-06 m=1 
MX0/X8338/M10 vdd3 X0/267 X0/X8338/6 vdd3 PE3I L=3.00566e-07 W=1.47006e-06 AD=2.83187e-13 AS=2.61963e-13 PD=1.86506e-06 PS=1.87506e-06 m=1 
MX0/X8338/M11 X0/92 X0/X8338/6 vdd3 vdd3 PE3I L=3.00566e-07 W=1.47006e-06 AD=2.61963e-13 AS=2.83187e-13 PD=1.87506e-06 PS=1.86506e-06 m=1 
MX0/X8338/M12 vdd3 X0/X8338/6 X0/92 vdd3 PE3I L=3.00566e-07 W=1.47006e-06 AD=2.83187e-13 AS=2.61963e-13 PD=1.86506e-06 PS=1.87506e-06 m=1 
MX0/X8338/M13 X0/92 X0/X8338/6 vdd3 vdd3 PE3I L=3.00566e-07 W=1.47006e-06 AD=2.61963e-13 AS=2.83187e-13 PD=1.87506e-06 PS=1.86506e-06 m=1 
MX0/X8338/M14 vdd3 X0/X8338/6 X0/92 vdd3 PE3I L=3.00566e-07 W=1.47006e-06 AD=2.83187e-13 AS=2.61963e-13 PD=1.86506e-06 PS=1.87506e-06 m=1 
MX0/X8338/M15 X0/92 X0/X8338/6 vdd3 vdd3 PE3I L=3.00566e-07 W=1.47006e-06 AD=2.61963e-13 AS=2.83187e-13 PD=1.87506e-06 PS=1.86506e-06 m=1 
MX0/X8338/M16 vdd3 X0/X8338/6 X0/92 vdd3 PE3I L=3.00566e-07 W=1.47006e-06 AD=2.83187e-13 AS=2.61963e-13 PD=1.86506e-06 PS=1.87506e-06 m=1 
MX0/X8338/M17 X0/92 X0/X8338/6 vdd3 vdd3 PE3I L=3.00566e-07 W=1.47006e-06 AD=2.61963e-13 AS=2.83187e-13 PD=1.87506e-06 PS=1.86506e-06 m=1 
MX0/X8338/M18 vdd3 X0/X8338/6 X0/92 vdd3 PE3I L=3.00566e-07 W=1.47006e-06 AD=5.79287e-13 AS=2.61963e-13 PD=3.69506e-06 PS=1.87506e-06 m=1 
MX0/X8339/M0 X0/X8339/6 X0/357 gndd gndd NE3I L=3.5e-07 W=8.9e-07 AD=2.403e-13 AS=6.098e-13 PD=1.43e-06 PS=3.52e-06 m=1 
MX0/X8339/M1 gndd X0/357 X0/X8339/6 gndd NE3I L=3.5e-07 W=8.9e-07 AD=3.804e-13 AS=2.403e-13 PD=1.91e-06 PS=1.43e-06 m=1 
MX0/X8339/M2 26 X0/X8339/6 gndd gndd NE3I L=3.5e-07 W=8.9e-07 AD=2.403e-13 AS=3.804e-13 PD=1.43e-06 PS=1.91e-06 m=1 
MX0/X8339/M3 gndd X0/X8339/6 26 gndd NE3I L=3.5e-07 W=8.9e-07 AD=3.494e-13 AS=2.403e-13 PD=1.86e-06 PS=1.43e-06 m=1 
MX0/X8339/M4 26 X0/X8339/6 gndd gndd NE3I L=3.5e-07 W=8.9e-07 AD=2.403e-13 AS=3.494e-13 PD=1.43e-06 PS=1.86e-06 m=1 
MX0/X8339/M5 gndd X0/X8339/6 26 gndd NE3I L=3.5e-07 W=8.9e-07 AD=3.494e-13 AS=2.403e-13 PD=1.86e-06 PS=1.43e-06 m=1 
MX0/X8339/M6 26 X0/X8339/6 gndd gndd NE3I L=3.5e-07 W=8.9e-07 AD=2.403e-13 AS=3.494e-13 PD=1.43e-06 PS=1.86e-06 m=1 
MX0/X8339/M7 gndd X0/X8339/6 26 gndd NE3I L=3.5e-07 W=8.9e-07 AD=8.702e-13 AS=2.403e-13 PD=3.94e-06 PS=1.43e-06 m=1 
MX0/X8339/M8 vdd3 X0/357 X0/X8339/6 vdd3 PE3I L=3.00566e-07 W=1.47006e-06 AD=2.83187e-13 AS=5.51013e-13 PD=1.86506e-06 PS=3.69506e-06 m=1 
MX0/X8339/M9 X0/X8339/6 X0/357 vdd3 vdd3 PE3I L=3.00566e-07 W=1.47006e-06 AD=2.61963e-13 AS=2.83187e-13 PD=1.87506e-06 PS=1.86506e-06 m=1 
MX0/X8339/M10 vdd3 X0/357 X0/X8339/6 vdd3 PE3I L=3.00566e-07 W=1.47006e-06 AD=2.83187e-13 AS=2.61963e-13 PD=1.86506e-06 PS=1.87506e-06 m=1 
MX0/X8339/M11 26 X0/X8339/6 vdd3 vdd3 PE3I L=3.00566e-07 W=1.47006e-06 AD=2.61963e-13 AS=2.83187e-13 PD=1.87506e-06 PS=1.86506e-06 m=1 
MX0/X8339/M12 vdd3 X0/X8339/6 26 vdd3 PE3I L=3.00566e-07 W=1.47006e-06 AD=2.83187e-13 AS=2.61963e-13 PD=1.86506e-06 PS=1.87506e-06 m=1 
MX0/X8339/M13 26 X0/X8339/6 vdd3 vdd3 PE3I L=3.00566e-07 W=1.47006e-06 AD=2.61963e-13 AS=2.83187e-13 PD=1.87506e-06 PS=1.86506e-06 m=1 
MX0/X8339/M14 vdd3 X0/X8339/6 26 vdd3 PE3I L=3.00566e-07 W=1.47006e-06 AD=2.83187e-13 AS=2.61963e-13 PD=1.86506e-06 PS=1.87506e-06 m=1 
MX0/X8339/M15 26 X0/X8339/6 vdd3 vdd3 PE3I L=3.00566e-07 W=1.47006e-06 AD=2.61963e-13 AS=2.83187e-13 PD=1.87506e-06 PS=1.86506e-06 m=1 
MX0/X8339/M16 vdd3 X0/X8339/6 26 vdd3 PE3I L=3.00566e-07 W=1.47006e-06 AD=2.83187e-13 AS=2.61963e-13 PD=1.86506e-06 PS=1.87506e-06 m=1 
MX0/X8339/M17 26 X0/X8339/6 vdd3 vdd3 PE3I L=3.00566e-07 W=1.47006e-06 AD=2.61963e-13 AS=2.83187e-13 PD=1.87506e-06 PS=1.86506e-06 m=1 
MX0/X8339/M18 vdd3 X0/X8339/6 26 vdd3 PE3I L=3.00566e-07 W=1.47006e-06 AD=5.79287e-13 AS=2.61963e-13 PD=3.69506e-06 PS=1.87506e-06 m=1 
MX0/X8340/M0 X0/X8340/6 X0/267 gndd gndd NE3I L=3.5e-07 W=8.9e-07 AD=2.403e-13 AS=6.098e-13 PD=1.43e-06 PS=3.52e-06 m=1 
MX0/X8340/M1 gndd X0/267 X0/X8340/6 gndd NE3I L=3.5e-07 W=8.9e-07 AD=3.804e-13 AS=2.403e-13 PD=1.91e-06 PS=1.43e-06 m=1 
MX0/X8340/M2 X0/98 X0/X8340/6 gndd gndd NE3I L=3.5e-07 W=8.9e-07 AD=2.403e-13 AS=3.804e-13 PD=1.43e-06 PS=1.91e-06 m=1 
MX0/X8340/M3 gndd X0/X8340/6 X0/98 gndd NE3I L=3.5e-07 W=8.9e-07 AD=3.494e-13 AS=2.403e-13 PD=1.86e-06 PS=1.43e-06 m=1 
MX0/X8340/M4 X0/98 X0/X8340/6 gndd gndd NE3I L=3.5e-07 W=8.9e-07 AD=2.403e-13 AS=3.494e-13 PD=1.43e-06 PS=1.86e-06 m=1 
MX0/X8340/M5 gndd X0/X8340/6 X0/98 gndd NE3I L=3.5e-07 W=8.9e-07 AD=3.494e-13 AS=2.403e-13 PD=1.86e-06 PS=1.43e-06 m=1 
MX0/X8340/M6 X0/98 X0/X8340/6 gndd gndd NE3I L=3.5e-07 W=8.9e-07 AD=2.403e-13 AS=3.494e-13 PD=1.43e-06 PS=1.86e-06 m=1 
MX0/X8340/M7 gndd X0/X8340/6 X0/98 gndd NE3I L=3.5e-07 W=8.9e-07 AD=8.702e-13 AS=2.403e-13 PD=3.94e-06 PS=1.43e-06 m=1 
MX0/X8340/M8 vdd3 X0/267 X0/X8340/6 vdd3 PE3I L=3.00566e-07 W=1.47006e-06 AD=2.83187e-13 AS=5.51013e-13 PD=1.86506e-06 PS=3.69506e-06 m=1 