*SPEF "IEEE 1481-1998"
*DESIGN "aska_dig"
*DATE "Mon Sep  9 10:11:00 2024"
*VENDOR "Cadence Design Systems, Inc."
*PROGRAM "Innovus"
*VERSION "21.18-s099_1"
*DESIGN_FLOW "COUPLING C" "PIN_CAP NONE" "NAME_SCOPE LOCAL"
*DIVIDER /
*DELIMITER :
*BUS_DELIMITER []
*T_UNIT 1 NS
*C_UNIT 1 PF
*R_UNIT 1 OHM
*L_UNIT 1 HENRY

// MMMC spef file for corner 'max_rc'

*NAME_MAP

*1 enable
*2 pulse_active
*3 DAC[5]
*4 DAC[4]
*5 DAC[3]
*6 DAC[2]
*7 DAC[1]
*8 DAC[0]
*9 down_switches[31]
*10 down_switches[30]
*11 down_switches[29]
*12 down_switches[28]
*13 down_switches[27]
*14 down_switches[26]
*15 down_switches[25]
*16 down_switches[24]
*17 down_switches[23]
*18 down_switches[22]
*19 down_switches[21]
*20 down_switches[20]
*21 down_switches[19]
*22 down_switches[18]
*23 down_switches[17]
*24 down_switches[16]
*25 down_switches[15]
*26 down_switches[14]
*27 down_switches[13]
*28 down_switches[12]
*29 down_switches[11]
*30 down_switches[10]
*31 down_switches[9]
*32 down_switches[8]
*33 down_switches[7]
*34 down_switches[6]
*35 down_switches[5]
*36 down_switches[4]
*37 down_switches[3]
*38 down_switches[2]
*39 down_switches[1]
*40 down_switches[0]
*41 up_switches[31]
*42 up_switches[30]
*43 up_switches[29]
*44 up_switches[28]
*45 up_switches[27]
*46 up_switches[26]
*47 up_switches[25]
*48 up_switches[24]
*49 up_switches[23]
*50 up_switches[22]
*51 up_switches[21]
*52 up_switches[20]
*53 up_switches[19]
*54 up_switches[18]
*55 up_switches[17]
*56 up_switches[16]
*57 up_switches[15]
*58 up_switches[14]
*59 up_switches[13]
*60 up_switches[12]
*61 up_switches[11]
*62 up_switches[10]
*63 up_switches[9]
*64 up_switches[8]
*65 up_switches[7]
*66 up_switches[6]
*67 up_switches[5]
*68 up_switches[4]
*69 up_switches[3]
*70 up_switches[2]
*71 up_switches[1]
*72 up_switches[0]
*73 IC_addr[1]
*74 IC_addr[0]
*75 SPI_MOSI
*76 SPI_Clk
*77 SPI_CS
*78 porborn
*79 reset_l
*80 clk
*81 n_435
*82 n_434
*83 n_433
*84 n_432
*85 n_431
*86 n_430
*87 n_429
*88 n_428
*89 n_427
*90 n_426
*91 n_425
*92 n_424
*93 n_423
*94 n_422
*95 n_421
*96 n_420
*97 n_419
*98 n_418
*99 n_417
*100 n_416
*101 n_415
*102 n_414
*103 n_413
*104 n_412
*105 n_411
*106 n_410
*107 n_409
*108 n_408
*109 n_407
*110 n_406
*111 n_405
*112 n_404
*113 n_403
*114 n_402
*115 n_401
*116 n_400
*117 n_399
*118 n_398
*119 n_397
*120 n_396
*121 n_395
*122 n_394
*123 n_393
*124 n_392
*125 n_391
*126 n_390
*127 n_389
*128 n_388
*129 n_387
*130 n_386
*131 n_385
*132 n_384
*133 n_383
*134 n_382
*135 n_381
*136 n_380
*137 n_379
*138 n_378
*139 n_377
*140 n_376
*141 n_375
*142 n_374
*143 n_373
*144 n_372
*145 n_371
*146 n_370
*147 n_369
*148 n_368
*149 n_367
*150 n_366
*151 n_365
*152 n_364
*153 n_363
*154 n_362
*155 n_361
*156 n_360
*157 n_359
*158 n_358
*159 n_357
*160 n_356
*161 n_355
*162 n_354
*163 n_353
*164 n_352
*165 n_351
*166 n_350
*167 n_349
*168 n_348
*169 n_347
*170 n_346
*171 n_345
*172 n_344
*173 n_343
*174 n_342
*175 n_341
*176 n_340
*177 n_339
*178 n_338
*179 n_337
*180 n_336
*181 n_335
*182 n_334
*183 n_333
*184 n_332
*185 n_331
*186 n_330
*187 n_329
*188 n_328
*189 n_327
*190 n_326
*191 n_325
*192 n_324
*193 n_323
*194 n_322
*195 n_321
*196 n_320
*197 n_319
*198 n_318
*199 n_317
*200 n_316
*201 n_315
*202 n_314
*203 n_313
*204 n_312
*205 n_311
*206 n_310
*207 n_309
*208 n_308
*209 n_307
*210 n_306
*211 n_305
*212 n_304
*213 n_303
*214 n_302
*215 n_301
*216 n_300
*217 n_299
*218 n_298
*219 n_297
*220 n_296
*221 n_295
*222 n_294
*223 n_293
*224 n_292
*225 n_291
*226 n_290
*227 n_289
*228 n_288
*229 n_287
*230 n_285
*231 n_284
*232 n_283
*233 n_282
*234 n_281
*235 n_280
*236 n_279
*237 n_278
*238 n_277
*239 n_276
*240 n_275
*241 n_274
*242 n_273
*243 n_272
*244 n_271
*245 n_270
*246 n_269
*247 n_268
*248 n_267
*249 n_266
*250 n_265
*251 n_264
*252 n_263
*253 n_262
*254 n_261
*255 n_260
*256 n_259
*257 n_258
*258 n_257
*259 n_256
*260 n_255
*261 n_254
*262 n_252
*263 n_251
*264 n_250
*265 n_249
*266 n_248
*267 n_247
*268 n_246
*269 n_245
*270 n_244
*271 n_243
*272 n_242
*273 n_241
*274 n_239
*275 n_238
*276 n_237
*277 n_236
*278 n_235
*279 n_234
*280 n_233
*281 n_232
*282 n_231
*283 n_230
*284 n_229
*285 n_228
*286 n_226
*287 n_225
*288 n_222
*289 n_221
*290 n_220
*291 n_219
*292 n_218
*293 n_217
*294 n_216
*295 n_215
*296 n_214
*297 n_213
*298 n_212
*299 n_211
*300 n_210
*301 n_209
*302 n_208
*303 n_207
*304 n_206
*305 n_205
*306 n_204
*307 n_203
*308 n_202
*309 n_201
*310 n_200
*311 n_199
*312 n_198
*313 n_197
*314 n_196
*315 n_195
*316 n_194
*317 n_193
*318 n_192
*319 n_191
*320 n_190
*321 n_189
*322 n_188
*323 n_187
*324 n_186
*325 n_185
*326 n_184
*327 n_183
*328 n_182
*329 n_181
*330 n_180
*331 n_178
*332 n_177
*333 n_176
*334 n_175
*335 n_174
*336 n_173
*337 n_172
*338 n_171
*339 n_170
*340 n_169
*341 n_168
*342 n_167
*343 n_166
*344 n_165
*345 n_164
*346 n_163
*347 n_162
*348 n_161
*349 n_160
*350 n_159
*351 n_158
*352 n_157
*353 n_156
*354 n_155
*355 n_154
*356 n_153
*357 n_152
*358 n_151
*359 n_150
*360 n_149
*361 n_148
*362 n_147
*363 n_146
*364 n_145
*365 n_144
*366 n_143
*367 n_142
*368 n_141
*369 n_140
*370 n_139
*371 n_138
*372 n_137
*373 n_136
*374 n_135
*375 n_134
*376 n_133
*377 n_132
*378 n_131
*379 n_130
*380 n_128
*381 n_127
*382 n_126
*383 n_125
*384 n_124
*385 n_123
*386 n_122
*387 n_121
*388 n_120
*389 n_119
*390 n_118
*391 n_117
*392 n_116
*393 n_115
*394 n_114
*395 n_113
*396 n_112
*397 n_111
*398 n_110
*399 n_109
*400 n_108
*401 n_107
*402 n_106
*403 n_105
*404 n_104
*405 n_103
*406 n_102
*407 n_101
*408 n_100
*409 n_99
*410 n_98
*411 n_97
*412 n_96
*413 n_94
*414 n_93
*415 n_92
*416 n_91
*417 n_90
*418 n_89
*419 n_88
*420 n_87
*421 n_86
*422 n_85
*423 n_84
*424 n_83
*425 n_82
*426 n_81
*427 n_80
*428 n_79
*429 n_78
*430 n_77
*431 n_76
*432 n_75
*433 n_74
*434 n_73
*435 n_72
*436 n_71
*437 n_70
*438 n_69
*439 n_68
*440 n_67
*441 n_66
*442 n_65
*443 n_64
*444 n_63
*445 n_62
*446 n_61
*447 n_60
*448 n_59
*449 n_58
*450 n_57
*451 n_56
*452 n_55
*453 n_54
*454 n_53
*455 n_52
*456 n_51
*457 n_50
*458 n_49
*459 n_48
*460 n_47
*461 n_46
*462 n_45
*463 n_44
*464 n_43
*465 n_42
*466 n_41
*467 n_40
*468 n_39
*469 n_38
*470 n_37
*471 n_36
*472 n_35
*473 n_34
*474 n_33
*475 n_32
*476 n_31
*477 n_30
*478 n_29
*479 n_28
*480 n_27
*481 n_26
*482 n_25
*483 n_24
*484 n_23
*485 n_22
*486 n_21
*487 n_18
*488 n_17
*489 n_16
*490 n_15
*491 n_14
*492 n_13
*493 n_12
*494 n_11
*495 n_10
*496 n_9
*497 n_8
*498 n_7
*499 n_6
*500 n_5
*501 n_4
*502 n_3
*503 n_2
*504 n_1
*505 n_0
*506 spi1_Rx_data_temp[39]
*507 spi1_Rx_data_temp[38]
*508 spi1_Rx_data_temp[37]
*509 spi1_Rx_data_temp[36]
*510 spi1_Rx_data_temp[35]
*511 spi1_Rx_data_temp[34]
*512 spi1_Rx_data_temp[33]
*513 spi1_Rx_data_temp[32]
*514 spi1_Rx_data_temp[31]
*515 spi1_Rx_data_temp[30]
*516 spi1_Rx_data_temp[29]
*517 spi1_Rx_data_temp[28]
*518 spi1_Rx_data_temp[27]
*519 spi1_Rx_data_temp[26]
*520 spi1_Rx_data_temp[25]
*521 spi1_Rx_data_temp[24]
*522 spi1_Rx_data_temp[23]
*523 spi1_Rx_data_temp[22]
*524 spi1_Rx_data_temp[21]
*525 spi1_Rx_data_temp[20]
*526 spi1_Rx_data_temp[19]
*527 spi1_Rx_data_temp[18]
*528 spi1_Rx_data_temp[17]
*529 spi1_Rx_data_temp[16]
*530 spi1_Rx_data_temp[15]
*531 spi1_Rx_data_temp[14]
*532 spi1_Rx_data_temp[13]
*533 spi1_Rx_data_temp[12]
*534 spi1_Rx_data_temp[11]
*535 spi1_Rx_data_temp[10]
*536 spi1_Rx_data_temp[9]
*537 spi1_Rx_data_temp[8]
*538 spi1_Rx_data_temp[7]
*539 spi1_Rx_data_temp[6]
*540 spi1_Rx_data_temp[5]
*541 spi1_Rx_data_temp[4]
*542 spi1_Rx_data_temp[3]
*543 spi1_Rx_data_temp[2]
*544 spi1_Rx_data_temp[1]
*545 spi1_Rx_data_temp[0]
*546 spi1_Rx_count[5]
*547 spi1_Rx_count[4]
*548 spi1_Rx_count[3]
*549 spi1_Rx_count[2]
*550 spi1_Rx_count[1]
*551 spi1_Rx_count[0]
*552 spi1_ele2_meta[31]
*553 spi1_ele2_meta[30]
*554 spi1_ele2_meta[29]
*555 spi1_ele2_meta[28]
*556 spi1_ele2_meta[27]
*557 spi1_ele2_meta[26]
*558 spi1_ele2_meta[25]
*559 spi1_ele2_meta[24]
*560 spi1_ele2_meta[23]
*561 spi1_ele2_meta[22]
*562 spi1_ele2_meta[21]
*563 spi1_ele2_meta[20]
*564 spi1_ele2_meta[19]
*565 spi1_ele2_meta[18]
*566 spi1_ele2_meta[17]
*567 spi1_ele2_meta[16]
*568 spi1_ele2_meta[15]
*569 spi1_ele2_meta[14]
*570 spi1_ele2_meta[13]
*571 spi1_ele2_meta[12]
*572 spi1_ele2_meta[11]
*573 spi1_ele2_meta[10]
*574 spi1_ele2_meta[9]
*575 spi1_ele2_meta[8]
*576 spi1_ele2_meta[7]
*577 spi1_ele2_meta[6]
*578 spi1_ele2_meta[5]
*579 spi1_ele2_meta[4]
*580 spi1_ele2_meta[3]
*581 spi1_ele2_meta[2]
*582 spi1_ele2_meta[1]
*583 spi1_ele2_meta[0]
*584 spi1_ele2_asyn[31]
*585 spi1_ele2_asyn[30]
*586 spi1_ele2_asyn[29]
*587 spi1_ele2_asyn[28]
*588 spi1_ele2_asyn[27]
*589 spi1_ele2_asyn[26]
*590 spi1_ele2_asyn[25]
*591 spi1_ele2_asyn[24]
*592 spi1_ele2_asyn[23]
*593 spi1_ele2_asyn[22]
*594 spi1_ele2_asyn[21]
*595 spi1_ele2_asyn[20]
*596 spi1_ele2_asyn[19]
*597 spi1_ele2_asyn[18]
*598 spi1_ele2_asyn[17]
*599 spi1_ele2_asyn[16]
*600 spi1_ele2_asyn[15]
*601 spi1_ele2_asyn[14]
*602 spi1_ele2_asyn[13]
*603 spi1_ele2_asyn[12]
*604 spi1_ele2_asyn[11]
*605 spi1_ele2_asyn[10]
*606 spi1_ele2_asyn[9]
*607 spi1_ele2_asyn[8]
*608 spi1_ele2_asyn[7]
*609 spi1_ele2_asyn[6]
*610 spi1_ele2_asyn[5]
*611 spi1_ele2_asyn[4]
*612 spi1_ele2_asyn[3]
*613 spi1_ele2_asyn[2]
*614 spi1_ele2_asyn[1]
*615 spi1_ele2_asyn[0]
*616 spi1_ele1_meta[31]
*617 spi1_ele1_meta[30]
*618 spi1_ele1_meta[29]
*619 spi1_ele1_meta[28]
*620 spi1_ele1_meta[27]
*621 spi1_ele1_meta[26]
*622 spi1_ele1_meta[25]
*623 spi1_ele1_meta[24]
*624 spi1_ele1_meta[23]
*625 spi1_ele1_meta[22]
*626 spi1_ele1_meta[21]
*627 spi1_ele1_meta[20]
*628 spi1_ele1_meta[19]
*629 spi1_ele1_meta[18]
*630 spi1_ele1_meta[17]
*631 spi1_ele1_meta[16]
*632 spi1_ele1_meta[15]
*633 spi1_ele1_meta[14]
*634 spi1_ele1_meta[13]
*635 spi1_ele1_meta[12]
*636 spi1_ele1_meta[11]
*637 spi1_ele1_meta[10]
*638 spi1_ele1_meta[9]
*639 spi1_ele1_meta[8]
*640 spi1_ele1_meta[7]
*641 spi1_ele1_meta[6]
*642 spi1_ele1_meta[5]
*643 spi1_ele1_meta[4]
*644 spi1_ele1_meta[3]
*645 spi1_ele1_meta[2]
*646 spi1_ele1_meta[1]
*647 spi1_ele1_meta[0]
*648 spi1_ele1_asyn[31]
*649 spi1_ele1_asyn[30]
*650 spi1_ele1_asyn[29]
*651 spi1_ele1_asyn[28]
*652 spi1_ele1_asyn[27]
*653 spi1_ele1_asyn[26]
*654 spi1_ele1_asyn[25]
*655 spi1_ele1_asyn[24]
*656 spi1_ele1_asyn[23]
*657 spi1_ele1_asyn[22]
*658 spi1_ele1_asyn[21]
*659 spi1_ele1_asyn[20]
*660 spi1_ele1_asyn[19]
*661 spi1_ele1_asyn[18]
*662 spi1_ele1_asyn[17]
*663 spi1_ele1_asyn[16]
*664 spi1_ele1_asyn[15]
*665 spi1_ele1_asyn[14]
*666 spi1_ele1_asyn[13]
*667 spi1_ele1_asyn[12]
*668 spi1_ele1_asyn[11]
*669 spi1_ele1_asyn[10]
*670 spi1_ele1_asyn[9]
*671 spi1_ele1_asyn[8]
*672 spi1_ele1_asyn[7]
*673 spi1_ele1_asyn[6]
*674 spi1_ele1_asyn[5]
*675 spi1_ele1_asyn[4]
*676 spi1_ele1_asyn[3]
*677 spi1_ele1_asyn[2]
*678 spi1_ele1_asyn[1]
*679 spi1_ele1_asyn[0]
*680 spi1_conf1_meta[23]
*681 spi1_conf1_meta[22]
*682 spi1_conf1_meta[21]
*683 spi1_conf1_meta[20]
*684 spi1_conf1_meta[19]
*685 spi1_conf1_meta[18]
*686 spi1_conf1_meta[17]
*687 spi1_conf1_meta[16]
*688 spi1_conf1_meta[15]
*689 spi1_conf1_meta[14]
*690 spi1_conf1_meta[13]
*691 spi1_conf1_meta[12]
*692 spi1_conf1_meta[11]
*693 spi1_conf1_meta[10]
*694 spi1_conf1_meta[9]
*695 spi1_conf1_meta[8]
*696 spi1_conf1_meta[7]
*697 spi1_conf1_meta[6]
*698 spi1_conf1_meta[5]
*699 spi1_conf1_meta[4]
*700 spi1_conf1_meta[3]
*701 spi1_conf1_meta[2]
*702 spi1_conf1_meta[1]
*703 spi1_conf1_meta[0]
*704 spi1_conf1_asyn[23]
*705 spi1_conf1_asyn[22]
*706 spi1_conf1_asyn[21]
*707 spi1_conf1_asyn[20]
*708 spi1_conf1_asyn[19]
*709 spi1_conf1_asyn[18]
*710 spi1_conf1_asyn[17]
*711 spi1_conf1_asyn[16]
*712 spi1_conf1_asyn[15]
*713 spi1_conf1_asyn[14]
*714 spi1_conf1_asyn[13]
*715 spi1_conf1_asyn[12]
*716 spi1_conf1_asyn[11]
*717 spi1_conf1_asyn[10]
*718 spi1_conf1_asyn[9]
*719 spi1_conf1_asyn[8]
*720 spi1_conf1_asyn[7]
*721 spi1_conf1_asyn[6]
*722 spi1_conf1_asyn[5]
*723 spi1_conf1_asyn[4]
*724 spi1_conf1_asyn[3]
*725 spi1_conf1_asyn[2]
*726 spi1_conf1_asyn[1]
*727 spi1_conf1_asyn[0]
*728 spi1_conf0_meta[31]
*729 spi1_conf0_meta[30]
*730 spi1_conf0_meta[29]
*731 spi1_conf0_meta[28]
*732 spi1_conf0_meta[27]
*733 spi1_conf0_meta[26]
*734 spi1_conf0_meta[25]
*735 spi1_conf0_meta[24]
*736 spi1_conf0_meta[23]
*737 spi1_conf0_meta[22]
*738 spi1_conf0_meta[21]
*739 spi1_conf0_meta[20]
*740 spi1_conf0_meta[19]
*741 spi1_conf0_meta[18]
*742 spi1_conf0_meta[17]
*743 spi1_conf0_meta[16]
*744 spi1_conf0_meta[15]
*745 spi1_conf0_meta[14]
*746 spi1_conf0_meta[13]
*747 spi1_conf0_meta[12]
*748 spi1_conf0_meta[11]
*749 spi1_conf0_meta[10]
*750 spi1_conf0_meta[9]
*751 spi1_conf0_meta[8]
*752 spi1_conf0_meta[7]
*753 spi1_conf0_meta[6]
*754 spi1_conf0_meta[5]
*755 spi1_conf0_meta[4]
*756 spi1_conf0_meta[3]
*757 spi1_conf0_meta[2]
*758 spi1_conf0_meta[1]
*759 spi1_conf0_meta[0]
*760 spi1_conf0_asyn[31]
*761 spi1_conf0_asyn[30]
*762 spi1_conf0_asyn[29]
*763 spi1_conf0_asyn[28]
*764 spi1_conf0_asyn[27]
*765 spi1_conf0_asyn[26]
*766 spi1_conf0_asyn[25]
*767 spi1_conf0_asyn[24]
*768 spi1_conf0_asyn[23]
*769 spi1_conf0_asyn[22]
*770 spi1_conf0_asyn[21]
*771 spi1_conf0_asyn[20]
*772 spi1_conf0_asyn[19]
*773 spi1_conf0_asyn[18]
*774 spi1_conf0_asyn[17]
*775 spi1_conf0_asyn[16]
*776 spi1_conf0_asyn[15]
*777 spi1_conf0_asyn[14]
*778 spi1_conf0_asyn[13]
*779 spi1_conf0_asyn[12]
*780 spi1_conf0_asyn[11]
*781 spi1_conf0_asyn[10]
*782 spi1_conf0_asyn[9]
*783 spi1_conf0_asyn[8]
*784 spi1_conf0_asyn[7]
*785 spi1_conf0_asyn[6]
*786 spi1_conf0_asyn[5]
*787 spi1_conf0_asyn[4]
*788 spi1_conf0_asyn[3]
*789 spi1_conf0_asyn[2]
*790 spi1_conf0_asyn[1]
*791 spi1_conf0_asyn[0]
*792 conf0[31]
*793 conf0[30]
*794 conf0[29]
*795 conf0[28]
*796 conf0[27]
*797 conf0[26]
*798 conf0[25]
*799 conf0[24]
*800 conf0[23]
*801 conf0[22]
*802 conf0[21]
*803 conf0[20]
*804 conf0[19]
*805 conf0[18]
*806 conf0[17]
*807 conf0[16]
*808 conf0[15]
*809 conf0[14]
*810 conf0[13]
*811 conf0[12]
*812 conf0[11]
*813 conf0[10]
*814 conf0[9]
*815 conf0[8]
*816 conf0[7]
*817 conf0[6]
*818 conf0[5]
*819 conf0[4]
*820 conf0[3]
*821 conf0[2]
*822 conf0[1]
*823 conf0[0]
*824 conf1[23]
*825 conf1[22]
*826 conf1[21]
*827 conf1[19]
*828 conf1[18]
*829 conf1[17]
*830 conf1[16]
*831 conf1[15]
*832 conf1[14]
*833 conf1[13]
*834 conf1[12]
*835 conf1[11]
*836 conf1[10]
*837 conf1[9]
*838 conf1[8]
*839 conf1[7]
*840 conf1[6]
*841 conf1[5]
*842 conf1[4]
*843 conf1[3]
*844 conf1[2]
*845 conf1[1]
*846 conf1[0]
*847 npg1_phase_up_count[2]
*848 npg1_phase_up_count[1]
*849 npg1_phase_up_count[0]
*850 npg1_phase_down_count[2]
*851 npg1_phase_down_count[1]
*852 npg1_phase_down_count[0]
*853 npg1_on_off_ctrl[2]
*854 npg1_on_off_ctrl[1]
*855 npg1_on_off_ctrl[0]
*856 npg1_freq_count[11]
*857 npg1_freq_count[10]
*858 npg1_freq_count[9]
*859 npg1_freq_count[8]
*860 npg1_freq_count[7]
*861 npg1_freq_count[6]
*862 npg1_freq_count[5]
*863 npg1_freq_count[4]
*864 npg1_freq_count[3]
*865 npg1_freq_count[2]
*866 npg1_freq_count[1]
*867 npg1_freq_count[0]
*868 npg1_UP_count[5]
*869 npg1_UP_count[4]
*870 npg1_UP_count[3]
*871 npg1_UP_count[2]
*872 npg1_UP_count[1]
*873 npg1_UP_count[0]
*874 npg1_UP_accumulator[9]
*875 npg1_UP_accumulator[8]
*876 npg1_UP_accumulator[7]
*877 npg1_UP_accumulator[6]
*878 npg1_UP_accumulator[5]
*879 npg1_UP_accumulator[4]
*880 npg1_UP_accumulator[3]
*881 npg1_UP_accumulator[2]
*882 npg1_UP_accumulator[1]
*883 npg1_UP_accumulator[0]
*884 npg1_ON_count[7]
*885 npg1_ON_count[6]
*886 npg1_ON_count[5]
*887 npg1_ON_count[4]
*888 npg1_ON_count[3]
*889 npg1_ON_count[2]
*890 npg1_ON_count[1]
*891 npg1_ON_count[0]
*892 npg1_OFF_count[9]
*893 npg1_OFF_count[8]
*894 npg1_OFF_count[7]
*895 npg1_OFF_count[6]
*896 npg1_OFF_count[5]
*897 npg1_OFF_count[4]
*898 npg1_OFF_count[3]
*899 npg1_OFF_count[2]
*900 npg1_OFF_count[1]
*901 npg1_OFF_count[0]
*902 npg1_DOWN_count[5]
*903 npg1_DOWN_count[4]
*904 npg1_DOWN_count[3]
*905 npg1_DOWN_count[2]
*906 npg1_DOWN_count[1]
*907 npg1_DOWN_count[0]
*908 npg1_DOWN_accumulator[9]
*909 npg1_DOWN_accumulator[8]
*910 npg1_DOWN_accumulator[7]
*911 npg1_DOWN_accumulator[6]
*912 npg1_DOWN_accumulator[5]
*913 npg1_DOWN_accumulator[4]
*914 npg1_DOWN_accumulator[3]
*915 npg1_DOWN_accumulator[2]
*916 npg1_DOWN_accumulator[1]
*917 npg1_DOWN_accumulator[0]
*918 ele1[31]
*919 ele1[30]
*920 ele1[29]
*921 ele1[28]
*922 ele1[27]
*923 ele1[26]
*924 ele1[25]
*925 ele1[24]
*926 ele1[23]
*927 ele1[22]
*928 ele1[21]
*929 ele1[20]
*930 ele1[19]
*931 ele1[18]
*932 ele1[17]
*933 ele1[16]
*934 ele1[15]
*935 ele1[14]
*936 ele1[13]
*937 ele1[12]
*938 ele1[11]
*939 ele1[10]
*940 ele1[9]
*941 ele1[8]
*942 ele1[7]
*943 ele1[6]
*944 ele1[5]
*945 ele1[4]
*946 ele1[3]
*947 ele1[2]
*948 ele1[1]
*949 ele1[0]
*950 ele2[31]
*951 ele2[30]
*952 ele2[29]
*953 ele2[28]
*954 ele2[27]
*955 ele2[26]
*956 ele2[25]
*957 ele2[24]
*958 ele2[23]
*959 ele2[22]
*960 ele2[21]
*961 ele2[20]
*962 ele2[19]
*963 ele2[18]
*964 ele2[17]
*965 ele2[16]
*966 ele2[15]
*967 ele2[14]
*968 ele2[13]
*969 ele2[12]
*970 ele2[11]
*971 ele2[10]
*972 ele2[9]
*973 ele2[8]
*974 ele2[7]
*975 ele2[6]
*976 ele2[5]
*977 ele2[4]
*978 ele2[3]
*979 ele2[2]
*980 ele2[1]
*981 ele2[0]
*982 npg1_DAC_cont[5]
*983 npg1_DAC_cont[4]
*984 npg1_DAC_cont[3]
*985 npg1_DAC_cont[2]
*986 npg1_DAC_cont[1]
*987 npg1_DAC_cont[0]
*988 FE_OFN1_up_switches_31
*989 FE_OFN2_up_switches_30
*990 FE_OFN3_up_switches_29
*991 FE_OFN4_up_switches_28
*992 FE_OFN5_up_switches_27
*993 FE_OFN6_up_switches_26
*994 FE_OFN7_up_switches_25
*995 FE_OFN8_up_switches_24
*996 FE_OFN9_up_switches_23
*997 FE_OFN10_up_switches_21
*998 FE_OFN11_up_switches_20
*999 FE_OFN12_up_switches_19
*1000 FE_OFN13_up_switches_18
*1001 FE_OFN14_up_switches_17
*1002 FE_OFN15_up_switches_16
*1003 FE_OFN16_up_switches_13
*1004 FE_OFN17_up_switches_12
*1005 FE_OFN18_up_switches_11
*1006 FE_OFN19_up_switches_10
*1007 FE_OFN20_up_switches_9
*1008 FE_OFN21_up_switches_8
*1009 FE_OFN22_up_switches_7
*1010 FE_OFN23_up_switches_6
*1011 FE_OFN24_up_switches_5
*1012 FE_OFN25_up_switches_4
*1013 FE_OFN26_up_switches_3
*1014 FE_OFN27_up_switches_2
*1015 FE_OFN28_up_switches_1
*1016 FE_OFN29_up_switches_0
*1017 FE_OFN30_SPI_CS
*1018 FE_OFN33_n_32
*1019 FE_OFN35_n_32
*1020 FE_OFN39_pulse_active
*1021 FE_OFN40_n_510
*1022 FE_OFN42_DAC_0
*1023 FE_OFN43_DAC_1
*1024 FE_OFN44_DAC_2
*1025 FE_OFN45_DAC_3
*1026 FE_OFN46_DAC_4
*1027 FE_OFN47_DAC_5
*1028 FE_OFN50_npg1_phase_up_state
*1029 FE_OFN52_enable
*1030 FE_OFN55_n_32
*1031 CTS_4
*1032 CTS_5
*1033 CTS_1
*1034 CTS_2
*1035 CTS_3
*1036 CTS_6
*1037 CTS_7
*1038 CTS_8
*1039 CTS_9
*1040 CTS_10
*1041 CTS_11
*1042 FE_OFN57_npg1_phase_up_state
*1043 FE_OFN58_npg1_phase_down_state
*1044 FE_PHN233_npg1_OFF_count_3
*1045 FE_PHN253_SPI_CS
*1046 FE_PHN254_SPI_CS
*1047 FE_PHN262_n_32
*1048 FE_PHN263_n_32
*1049 FE_PHN268_n_32
*1050 FE_PHN271_n_32
*1051 FE_PHN272_FE_OFN33_n_32
*1052 FE_OFN443_FE_PHN271_n_32
*1053 FE_PHN274_SPI_MOSI
*1054 FE_PHN275_SPI_CS
*1055 FE_PHN276_spi1_ele2_meta_29
*1056 FE_PHN277_spi1_ele1_meta_11
*1057 FE_PHN278_spi1_ele1_meta_12
*1058 FE_PHN279_spi1_ele2_meta_17
*1059 FE_PHN280_spi1_conf0_meta_11
*1060 FE_PHN281_spi1_conf0_meta_4
*1061 FE_PHN282_spi1_conf1_meta_14
*1062 FE_PHN283_spi1_conf0_meta_2
*1063 FE_PHN284_spi1_conf0_meta_3
*1064 FE_PHN285_spi1_ele1_meta_14
*1065 FE_PHN286_spi1_conf0_meta_15
*1066 FE_PHN287_spi1_conf1_meta_20
*1067 FE_PHN288_spi1_conf0_meta_31
*1068 FE_PHN289_spi1_ele2_meta_4
*1069 FE_PHN290_spi1_ele2_meta_0
*1070 FE_PHN291_npg1_pulse_aux
*1071 FE_PHN292_spi1_conf1_meta_0
*1072 FE_PHN293_spi1_conf1_meta_3
*1073 FE_PHN294_spi1_conf1_meta_19
*1074 FE_PHN295_spi1_ele2_meta_18
*1075 FE_PHN296_spi1_ele2_meta_31
*1076 FE_PHN297_spi1_ele1_meta_10
*1077 FE_PHN298_spi1_conf0_meta_22
*1078 FE_PHN299_spi1_ele2_meta_1
*1079 FE_PHN300_spi1_ele2_meta_9
*1080 FE_PHN301_spi1_ele1_meta_15
*1081 FE_PHN302_spi1_conf0_meta_23
*1082 FE_PHN303_spi1_conf1_meta_6
*1083 FE_PHN304_spi1_conf0_meta_16
*1084 FE_PHN305_spi1_conf0_meta_1
*1085 FE_PHN306_spi1_ele2_meta_19
*1086 FE_PHN307_spi1_conf0_meta_17
*1087 FE_PHN308_spi1_ele1_meta_9
*1088 FE_PHN309_spi1_ele1_meta_27
*1089 FE_PHN310_spi1_conf0_meta_10
*1090 FE_PHN311_spi1_ele2_meta_21
*1091 FE_PHN312_spi1_ele2_meta_13
*1092 FE_PHN313_spi1_ele2_meta_25
*1093 FE_PHN314_spi1_conf1_meta_15
*1094 FE_PHN315_spi1_ele2_meta_20
*1095 FE_PHN316_spi1_ele1_meta_21
*1096 FE_PHN317_spi1_conf0_meta_12
*1097 FE_PHN318_spi1_conf0_meta_29
*1098 FE_PHN319_spi1_ele2_meta_23
*1099 FE_PHN320_spi1_ele2_meta_5
*1100 FE_PHN321_spi1_ele1_meta_18
*1101 FE_PHN322_spi1_ele1_meta_3
*1102 FE_PHN323_spi1_ele1_meta_13
*1103 FE_PHN324_spi1_ele2_meta_2
*1104 FE_PHN325_spi1_ele2_meta_11
*1105 FE_PHN326_spi1_ele1_meta_4
*1106 FE_PHN327_spi1_ele1_meta_25
*1107 FE_PHN328_spi1_ele1_meta_20
*1108 FE_PHN329_spi1_conf1_meta_8
*1109 FE_PHN330_spi1_ele1_meta_1
*1110 FE_PHN331_spi1_ele2_meta_12
*1111 FE_PHN332_spi1_ele1_meta_5
*1112 FE_PHN333_spi1_ele2_meta_28
*1113 FE_PHN334_spi1_conf0_meta_6
*1114 FE_PHN335_spi1_ele1_meta_30
*1115 FE_PHN336_spi1_ele2_meta_24
*1116 FE_PHN337_spi1_ele1_meta_7
*1117 FE_PHN338_spi1_ele2_meta_30
*1118 FE_PHN339_spi1_conf1_meta_18
*1119 FE_PHN340_spi1_ele2_meta_27
*1120 FE_PHN341_spi1_ele2_meta_15
*1121 FE_PHN342_spi1_conf0_meta_25
*1122 FE_PHN343_spi1_ele2_meta_3
*1123 FE_PHN344_spi1_ele1_meta_26
*1124 FE_PHN345_spi1_conf0_meta_28
*1125 FE_PHN346_spi1_conf0_meta_19
*1126 FE_PHN347_spi1_conf0_meta_26
*1127 FE_PHN348_spi1_conf1_meta_1
*1128 FE_PHN349_spi1_ele1_meta_0
*1129 FE_PHN350_spi1_ele1_meta_6
*1130 FE_PHN351_spi1_conf1_meta_13
*1131 FE_PHN352_spi1_conf1_meta_22
*1132 FE_PHN353_spi1_conf0_meta_7
*1133 FE_PHN354_spi1_ele1_meta_17
*1134 FE_PHN355_spi1_conf1_meta_23
*1135 FE_PHN356_spi1_conf1_meta_21
*1136 FE_PHN357_spi1_conf0_meta_9
*1137 FE_PHN358_spi1_ele2_meta_7
*1138 FE_PHN359_spi1_ele1_meta_23
*1139 FE_PHN360_spi1_conf0_meta_14
*1140 FE_PHN361_spi1_conf1_meta_11
*1141 FE_PHN362_spi1_ele1_meta_28
*1142 FE_PHN363_spi1_ele1_meta_22
*1143 FE_PHN364_spi1_conf0_meta_24
*1144 FE_PHN365_spi1_conf0_meta_13
*1145 FE_PHN366_spi1_conf0_meta_20
*1146 FE_PHN367_spi1_conf0_meta_8
*1147 FE_PHN368_spi1_ele2_meta_16
*1148 FE_PHN369_spi1_conf0_meta_5
*1149 FE_PHN370_spi1_ele1_meta_16
*1150 FE_PHN371_spi1_ele1_meta_29
*1151 FE_PHN372_spi1_conf1_meta_12
*1152 FE_PHN373_spi1_conf0_meta_27
*1153 FE_PHN374_spi1_conf1_meta_10
*1154 FE_PHN375_spi1_ele1_meta_31
*1155 FE_PHN376_spi1_conf1_meta_2
*1156 FE_PHN377_spi1_conf0_meta_18
*1157 FE_PHN378_spi1_conf1_meta_17
*1158 FE_PHN379_spi1_conf0_meta_30
*1159 FE_PHN380_spi1_ele2_meta_10
*1160 FE_PHN381_spi1_ele1_meta_24
*1161 FE_PHN382_spi1_ele1_meta_2
*1162 FE_PHN383_spi1_ele2_meta_22
*1163 FE_PHN384_spi1_conf1_meta_16
*1164 FE_PHN385_spi1_ele2_meta_14
*1165 FE_PHN386_spi1_conf0_meta_0
*1166 FE_PHN387_spi1_conf1_meta_4
*1167 FE_PHN388_spi1_ele2_meta_26
*1168 FE_PHN389_spi1_conf1_meta_7
*1169 FE_PHN390_spi1_conf0_meta_21
*1170 FE_PHN391_spi1_ele1_meta_19
*1171 FE_PHN392_spi1_ele1_meta_8
*1172 FE_PHN393_spi1_ele2_meta_6
*1173 FE_PHN394_spi1_conf1_meta_9
*1174 FE_PHN395_spi1_ele2_meta_8
*1175 FE_PHN396_spi1_conf1_meta_5
*1176 FE_PHN397_npg1_OFF_count_3
*1177 FE_PHN398_npg1_freq_count_3
*1178 FE_PHN399_npg1_freq_count_10
*1179 FE_PHN400_conf0_14
*1180 FE_PHN401_npg1_DOWN_accumulator_0
*1181 FE_PHN402_conf0_12
*1182 FE_PHN403_conf0_13
*1183 FE_PHN404_spi1_Rx_count_4
*1184 FE_PHN405_npg1_OFF_count_0
*1185 FE_PHN406_spi1_Rx_count_1
*1186 FE_PHN407_npg1_freq_count_5
*1187 FE_PHN408_porborn
*1188 FE_PHN409_n_442
*1189 FE_PHN410_spi1_n_1763
*1190 FE_PHN411_n_391
*1191 FE_PHN412_spi1_Rx_data_temp_36
*1192 FE_PHN413_spi1_Rx_data_temp_37
*1193 FE_PHN414_spi1_Rx_data_temp_35
*1194 FE_PHN415_SPI_CS
*1195 FE_PHN416_SPI_MOSI
*1196 FE_PHN417_porborn
*1197 FE_PHN418_SPI_CS
*1198 FE_PHN419_porborn
*1199 FE_PHN420_porborn
*1200 FE_PHN421_n_32
*1201 FE_PHN422_n_32
*1202 FE_PHN423_n_32
*1203 FE_PHN424_n_32
*1204 FE_PHN425_n_32
*1205 FE_PHN426_n_32
*1206 FE_PHN427_n_32
*1207 FE_PHN428_n_32
*1208 FE_PHN429_n_32
*1209 FE_PHN430_n_32
*1210 FE_PHN431_n_32
*1211 FE_PHN432_n_32
*1212 FE_PHN433_n_32
*1213 FE_PHN434_n_32
*1214 FE_PHN435_n_32
*1215 FE_PHN436_n_32
*1216 FE_PHN437_n_32
*1217 FE_PHN438_n_32
*1218 FE_PHN439_n_32
*1219 FE_PHN440_n_32
*1220 FE_PHN441_n_32
*1221 FE_PHN442_n_32
*1222 FE_PHN443_n_32
*1223 FE_PHN444_n_32
*1224 FE_PHN445_n_32
*1225 FE_PHN446_n_32
*1226 FE_PHN447_n_32
*1227 FE_PHN448_n_32
*1228 n_436
*1229 n_437
*1230 n_438
*1231 n_439
*1232 n_440
*1233 n_441
*1234 n_442
*1235 n_443
*1236 n_444
*1237 n_445
*1238 n_446
*1239 n_447
*1240 n_448
*1241 n_449
*1242 n_450
*1243 n_451
*1244 n_452
*1245 n_453
*1246 n_454
*1247 n_455
*1248 n_456
*1249 n_457
*1250 n_458
*1251 n_459
*1252 n_460
*1253 n_461
*1254 n_462
*1255 n_463
*1256 n_464
*1257 n_465
*1258 n_466
*1259 n_467
*1260 n_468
*1261 n_469
*1262 n_470
*1263 n_471
*1264 n_472
*1265 n_473
*1266 n_474
*1267 n_475
*1268 n_476
*1269 n_477
*1270 n_478
*1271 n_479
*1272 n_480
*1273 n_481
*1274 n_482
*1275 n_483
*1276 n_484
*1277 n_485
*1278 n_486
*1279 n_487
*1280 n_488
*1281 n_489
*1282 n_490
*1283 n_491
*1284 n_492
*1285 n_493
*1286 n_494
*1287 n_495
*1288 n_496
*1289 n_497
*1290 n_498
*1291 n_499
*1292 n_500
*1293 n_501
*1294 n_502
*1295 n_503
*1296 n_504
*1297 n_505
*1298 n_506
*1299 n_509
*1300 n_510
*1301 n_513
*1302 n_514
*1303 n_515
*1304 n_516
*1305 n_517
*1306 n_518
*1307 n_519
*1308 n_520
*1309 n_521
*1310 n_522
*1311 n_523
*1312 n_524
*1313 n_525
*1314 n_526
*1315 n_527
*1316 n_528
*1317 n_529
*1318 n_530
*1319 n_531
*1320 n_532
*1321 n_533
*1322 n_534
*1323 n_535
*1324 n_536
*1325 n_537
*1326 n_538
*1327 n_539
*1328 n_540
*1329 n_541
*1330 n_542
*1331 n_543
*1332 n_544
*1333 n_545
*1334 n_546
*1335 n_547
*1336 n_548
*1337 n_549
*1338 n_550
*1339 n_551
*1340 n_552
*1341 n_553
*1342 n_554
*1343 n_555
*1344 n_556
*1345 n_558
*1346 n_559
*1347 n_560
*1348 n_562
*1349 n_563
*1350 n_564
*1351 n_565
*1352 n_566
*1353 n_567
*1354 n_569
*1355 n_572
*1356 n_573
*1357 n_574
*1358 n_575
*1359 n_576
*1360 n_579
*1361 n_580
*1362 n_581
*1363 n_582
*1364 n_584
*1365 n_585
*1366 n_586
*1367 n_587
*1368 n_588
*1369 n_589
*1370 n_590
*1371 n_591
*1372 n_592
*1373 n_593
*1374 n_594
*1375 n_596
*1376 n_597
*1377 n_599
*1378 n_600
*1379 n_603
*1380 n_607
*1381 n_612
*1382 n_634
*1383 n_635
*1384 n_636
*1385 n_637
*1386 n_638
*1387 n_639
*1388 n_640
*1389 n_641
*1390 n_642
*1391 n_643
*1392 n_644
*1393 n_645
*1394 n_646
*1395 n_730
*1396 n_732
*1397 n_734
*1398 n_736
*1399 n_738
*1400 n_739
*1401 n_740
*1402 n_743
*1403 n_744
*1404 npg1_n_374
*1405 npg1_phase_down_state
*1406 npg1_phase_pause_ready
*1407 npg1_phase_up_state
*1408 npg1_pulse_aux
*1409 npg1_pulse_start
*1410 spi1_n_1763
*1411 spi1_n_1924
*1412 spi1_n_1926
*1413 spi1_n_1929
*1414 spi1_n_1930
*1415 spi1_n_1962
*1416 spi1_n_1964
*1417 spi1_n_1994
*1418 spi1_n_1995
*1419 spi1_n_1998
*1420 spi1_n_1999
*1421 spi1_n_2000
*1422 spi1_n_2001
*1423 spi1_n_2008
*1424 spi1_n_2010
*1425 spi1_n_2014
*1426 spi1_n_2015
*1427 spi1_n_2017
*1428 spi1_n_2018
*1429 spi1_n_2088
*1430 spi1_n_2271
*1431 spi1_n_2272
*1432 spi1_ele2_reg\[26\]
*1433 spi1_ele2_reg\[25\]
*1434 spi1_ele2_reg\[24\]
*1435 spi1_ele2_reg\[23\]
*1436 spi1_ele2_reg\[22\]
*1437 spi1_ele2_reg\[21\]
*1438 spi1_ele2_reg\[20\]
*1439 spi1_ele2_reg\[19\]
*1440 spi1_ele2_reg\[18\]
*1441 spi1_ele2_reg\[17\]
*1442 spi1_ele2_reg\[16\]
*1443 spi1_ele2_reg\[15\]
*1444 spi1_ele2_reg\[14\]
*1445 spi1_ele2_reg\[13\]
*1446 spi1_ele2_reg\[12\]
*1447 spi1_ele2_reg\[11\]
*1448 spi1_ele2_reg\[10\]
*1449 spi1_ele2_reg\[9\]
*1450 spi1_ele2_reg\[8\]
*1451 spi1_ele2_reg\[7\]
*1452 spi1_ele2_reg\[6\]
*1453 spi1_ele2_reg\[5\]
*1454 spi1_ele2_reg\[4\]
*1455 spi1_ele2_reg\[3\]
*1456 spi1_ele2_reg\[2\]
*1457 spi1_ele2_reg\[1\]
*1458 spi1_ele2_reg\[0\]
*1459 spi1_ele2_meta_reg\[31\]
*1460 spi1_ele2_meta_reg\[30\]
*1461 spi1_ele2_meta_reg\[29\]
*1462 spi1_ele2_meta_reg\[28\]
*1463 spi1_ele2_meta_reg\[27\]
*1464 spi1_ele2_meta_reg\[26\]
*1465 spi1_ele2_meta_reg\[25\]
*1466 spi1_ele2_meta_reg\[24\]
*1467 spi1_ele2_meta_reg\[23\]
*1468 spi1_ele2_meta_reg\[22\]
*1469 spi1_ele2_meta_reg\[21\]
*1470 spi1_ele2_meta_reg\[20\]
*1471 spi1_ele2_meta_reg\[19\]
*1472 spi1_ele2_meta_reg\[18\]
*1473 spi1_ele2_meta_reg\[17\]
*1474 spi1_ele2_meta_reg\[16\]
*1475 spi1_ele2_meta_reg\[15\]
*1476 spi1_ele2_meta_reg\[14\]
*1477 spi1_ele2_meta_reg\[13\]
*1478 spi1_ele2_meta_reg\[12\]
*1479 spi1_ele2_meta_reg\[11\]
*1480 spi1_ele2_meta_reg\[10\]
*1481 spi1_ele2_meta_reg\[9\]
*1482 spi1_ele2_meta_reg\[8\]
*1483 spi1_ele2_meta_reg\[7\]
*1484 spi1_ele2_meta_reg\[6\]
*1485 spi1_ele2_meta_reg\[5\]
*1486 spi1_ele2_meta_reg\[4\]
*1487 spi1_ele2_meta_reg\[3\]
*1488 spi1_ele2_meta_reg\[2\]
*1489 spi1_ele2_meta_reg\[1\]
*1490 spi1_ele2_meta_reg\[0\]
*1491 spi1_ele1_reg\[31\]
*1492 spi1_ele1_reg\[30\]
*1493 spi1_ele1_reg\[29\]
*1494 spi1_ele1_reg\[28\]
*1495 spi1_ele1_reg\[27\]
*1496 spi1_ele1_reg\[26\]
*1497 spi1_ele1_reg\[25\]
*1498 spi1_ele1_reg\[24\]
*1499 spi1_ele1_reg\[23\]
*1500 spi1_ele1_reg\[22\]
*1501 spi1_ele1_reg\[21\]
*1502 spi1_ele1_reg\[20\]
*1503 spi1_ele1_reg\[19\]
*1504 spi1_ele1_reg\[18\]
*1505 spi1_ele1_reg\[17\]
*1506 spi1_ele1_reg\[16\]
*1507 spi1_ele1_reg\[15\]
*1508 spi1_ele1_reg\[14\]
*1509 spi1_ele1_reg\[13\]
*1510 spi1_ele1_reg\[12\]
*1511 spi1_ele1_reg\[11\]
*1512 spi1_ele1_reg\[10\]
*1513 spi1_ele1_reg\[9\]
*1514 spi1_ele1_reg\[8\]
*1515 spi1_ele1_reg\[7\]
*1516 spi1_ele1_reg\[6\]
*1517 spi1_ele1_reg\[5\]
*1518 spi1_ele1_reg\[4\]
*1519 spi1_ele1_reg\[3\]
*1520 spi1_ele1_reg\[2\]
*1521 spi1_ele1_reg\[1\]
*1522 spi1_ele1_reg\[0\]
*1523 spi1_ele1_meta_reg\[31\]
*1524 spi1_ele1_meta_reg\[30\]
*1525 spi1_ele1_meta_reg\[29\]
*1526 spi1_ele1_meta_reg\[28\]
*1527 spi1_ele1_meta_reg\[27\]
*1528 spi1_ele1_meta_reg\[26\]
*1529 spi1_ele1_meta_reg\[25\]
*1530 spi1_ele1_meta_reg\[24\]
*1531 spi1_ele1_meta_reg\[23\]
*1532 spi1_ele1_meta_reg\[22\]
*1533 spi1_ele1_meta_reg\[21\]
*1534 spi1_ele1_meta_reg\[20\]
*1535 spi1_ele1_meta_reg\[19\]
*1536 spi1_ele1_meta_reg\[18\]
*1537 spi1_ele1_meta_reg\[17\]
*1538 spi1_ele1_meta_reg\[16\]
*1539 spi1_ele1_meta_reg\[15\]
*1540 spi1_ele1_meta_reg\[14\]
*1541 spi1_ele1_meta_reg\[13\]
*1542 spi1_ele1_meta_reg\[12\]
*1543 spi1_ele1_meta_reg\[11\]
*1544 spi1_ele1_meta_reg\[10\]
*1545 spi1_ele1_meta_reg\[9\]
*1546 spi1_ele1_meta_reg\[8\]
*1547 spi1_ele1_meta_reg\[7\]