*SPEF "IEEE 1481-1998"
*DESIGN "aska_dig"
*DATE "Mon Jul 15 19:05:25 2024"
*VENDOR "Cadence Design Systems, Inc."
*PROGRAM "Innovus"
*VERSION "21.18-s099_1"
*DESIGN_FLOW "COUPLING C" "PIN_CAP NONE" "NAME_SCOPE LOCAL"
*DIVIDER /
*DELIMITER :
*BUS_DELIMITER []
*T_UNIT 1 NS
*C_UNIT 1 PF
*R_UNIT 1 OHM
*L_UNIT 1 HENRY

// MMMC spef file for corner 'max_rc'

*NAME_MAP

*1 FE_PHN303_SPI_CS
*2 FE_PHN302_FE_OFN378_FE_OFN42_npg1_n_375
*3 FE_PHN301_FE_OFN378_FE_OFN42_npg1_n_375
*4 FE_PHN300_FE_OFN378_FE_OFN42_npg1_n_375
*5 FE_PHN299_FE_OFN378_FE_OFN42_npg1_n_375
*6 FE_PHN298_FE_OFN378_FE_OFN42_npg1_n_375
*7 FE_PHN297_FE_OFN378_FE_OFN42_npg1_n_375
*8 FE_PHN296_FE_OFN378_FE_OFN42_npg1_n_375
*9 FE_PHN295_FE_OFN378_FE_OFN42_npg1_n_375
*10 FE_PHN294_FE_OFN378_FE_OFN42_npg1_n_375
*11 FE_PHN293_FE_OFN378_FE_OFN42_npg1_n_375
*12 FE_PHN292_FE_OFN378_FE_OFN42_npg1_n_375
*13 FE_PHN291_FE_OFN378_FE_OFN42_npg1_n_375
*14 FE_PHN290_FE_OFN378_FE_OFN42_npg1_n_375
*15 FE_PHN289_FE_OFN378_FE_OFN42_npg1_n_375
*16 FE_PHN288_FE_OFN378_FE_OFN42_npg1_n_375
*17 FE_PHN287_FE_OFN42_npg1_n_375
*18 FE_PHN286_FE_OFN42_npg1_n_375
*19 FE_PHN285_FE_OFN42_npg1_n_375
*20 FE_PHN284_FE_OFN42_npg1_n_375
*21 FE_PHN283_FE_OFN42_npg1_n_375
*22 FE_PHN282_FE_OFN42_npg1_n_375
*23 FE_PHN281_npg1_n_375
*24 FE_PHN280_FE_OFN3_n_7
*25 FE_PHN279_npg1_n_375
*26 FE_PHN278_FE_OFN42_npg1_n_375
*27 FE_PHN277_FE_OFN3_n_7
*28 FE_PHN276_npg1_n_375
*29 FE_PHN275_SPI_CS
*30 FE_PHN274_npg1_n_375
*31 FE_PHN273_SPI_CS
*32 FE_PHN272_porborn
*33 FE_PHN271_SPI_MOSI
*34 FE_PHN270_SPI_CS
*35 FE_PHN269_spi1_Rx_data_temp_35
*36 FE_PHN268_SPI_CS
*37 FE_PHN267_spi1_Rx_data_temp_36
*38 FE_PHN266_n_338
*39 FE_PHN265_spi1_n_1763
*40 FE_PHN264_n_491
*41 FE_PHN263_porborn
*42 FE_PHN262_npg1_OFF_count_8
*43 FE_PHN261_npg1_UP_count_5
*44 FE_PHN260_npg1_DOWN_count_4
*45 FE_PHN259_npg1_DAC_cont_2
*46 FE_PHN258_spi1_Rx_count_4
*47 FE_PHN257_npg1_DOWN_accumulator_0
*48 FE_PHN256_spi1_Rx_data_temp_37
*49 FE_PHN255_npg1_freq_count_8
*50 FE_PHN254_spi1_Rx_data_temp_34
*51 FE_PHN253_npg1_DOWN_count_5
*52 FE_PHN252_npg1_UP_accumulator_0
*53 FE_PHN251_npg1_OFF_count_0
*54 FE_PHN250_npg1_DAC_cont_0
*55 FE_PHN249_npg1_phase_down_count_1
*56 FE_PHN248_spi1_Rx_count_1
*57 FE_PHN247_npg1_freq_count_0
*58 FE_PHN246_npg1_ON_count_6
*59 FE_PHN245_npg1_OFF_count_5
*60 FE_PHN244_npg1_OFF_count_3
*61 FE_PHN243_spi1_conf1_meta_5
*62 FE_PHN242_npg1_ON_count_7
*63 FE_PHN241_spi1_conf1_meta_0
*64 FE_PHN240_spi1_conf1_meta_4
*65 FE_PHN239_spi1_conf1_meta_9
*66 FE_PHN238_spi1_conf1_meta_7
*67 FE_PHN237_spi1_ele1_meta_30
*68 FE_PHN236_spi1_conf1_meta_1
*69 FE_PHN235_spi1_conf1_meta_6
*70 FE_PHN234_spi1_ele2_meta_31
*71 FE_PHN233_spi1_ele1_meta_4
*72 FE_PHN232_spi1_ele2_meta_2
*73 FE_PHN231_spi1_ele2_meta_4
*74 FE_PHN230_spi1_conf1_meta_8
*75 FE_PHN229_spi1_ele1_meta_6
*76 FE_PHN228_spi1_ele2_meta_17
*77 FE_PHN227_spi1_ele2_meta_5
*78 FE_PHN226_spi1_ele1_meta_31
*79 FE_PHN225_spi1_ele1_meta_27
*80 FE_PHN224_spi1_conf0_meta_1
*81 FE_PHN223_spi1_ele1_meta_8
*82 FE_PHN222_spi1_ele2_meta_8
*83 FE_PHN221_spi1_ele2_meta_7
*84 FE_PHN220_spi1_ele1_meta_26
*85 FE_PHN219_spi1_conf0_meta_16
*86 FE_PHN218_spi1_ele2_meta_13
*87 FE_PHN217_spi1_conf1_meta_2
*88 FE_PHN216_spi1_conf0_meta_24
*89 FE_PHN215_spi1_ele1_meta_12
*90 FE_PHN214_spi1_ele2_meta_24
*91 FE_PHN213_spi1_ele2_meta_15
*92 FE_PHN212_spi1_ele2_meta_27
*93 FE_PHN211_spi1_conf0_meta_18
*94 FE_PHN210_spi1_ele2_meta_26
*95 FE_PHN209_spi1_conf0_meta_15
*96 FE_PHN208_spi1_ele1_meta_20
*97 FE_PHN207_spi1_conf0_meta_23
*98 FE_PHN206_spi1_ele2_meta_20
*99 FE_PHN205_spi1_ele1_meta_15
*100 FE_PHN204_spi1_conf0_meta_19
*101 FE_PHN203_spi1_ele1_meta_23
*102 FE_PHN202_spi1_ele1_meta_21
*103 FE_PHN201_spi1_ele2_meta_25
*104 FE_PHN200_spi1_ele1_meta_14
*105 FE_PHN199_spi1_ele1_meta_28
*106 FE_PHN198_spi1_conf1_meta_3
*107 FE_PHN197_spi1_conf0_meta_25
*108 FE_PHN196_spi1_ele2_meta_19
*109 FE_PHN195_spi1_ele2_meta_18
*110 FE_PHN194_spi1_ele1_meta_29
*111 FE_PHN193_npg1_pulse_aux
*112 FE_PHN192_spi1_ele2_meta_29
*113 FE_PHN191_spi1_ele1_meta_17
*114 FE_PHN190_spi1_ele1_meta_7
*115 FE_PHN189_spi1_conf0_meta_5
*116 FE_PHN188_spi1_ele1_meta_1
*117 FE_PHN187_spi1_conf0_meta_17
*118 FE_PHN186_spi1_ele2_meta_3
*119 FE_PHN185_spi1_ele1_meta_16
*120 FE_PHN184_spi1_ele2_meta_0
*121 FE_PHN183_spi1_ele2_meta_11
*122 FE_PHN182_spi1_ele1_meta_10
*123 FE_PHN181_spi1_conf1_meta_10
*124 FE_PHN180_spi1_ele1_meta_11
*125 FE_PHN179_spi1_ele1_meta_2
*126 FE_PHN178_spi1_ele2_meta_30
*127 FE_PHN177_spi1_conf0_meta_10
*128 FE_PHN176_spi1_conf0_meta_27
*129 FE_PHN175_spi1_ele2_meta_28
*130 FE_PHN174_spi1_conf1_meta_11
*131 FE_PHN173_spi1_ele2_meta_1
*132 FE_PHN172_spi1_ele2_meta_21
*133 FE_PHN171_spi1_conf1_meta_22
*134 FE_PHN170_spi1_conf0_meta_8
*135 FE_PHN169_spi1_ele1_meta_3
*136 FE_PHN168_spi1_conf0_meta_22
*137 FE_PHN167_spi1_ele1_meta_18
*138 FE_PHN166_spi1_conf0_meta_21
*139 FE_PHN165_spi1_conf1_meta_16
*140 FE_PHN164_spi1_ele1_meta_24
*141 FE_PHN163_spi1_conf1_meta_23
*142 FE_PHN162_spi1_ele1_meta_9
*143 FE_PHN161_spi1_ele1_meta_22
*144 FE_PHN160_spi1_conf0_meta_20
*145 FE_PHN159_spi1_ele2_meta_9
*146 FE_PHN158_spi1_ele2_meta_6
*147 FE_PHN157_spi1_conf1_meta_20
*148 FE_PHN156_spi1_ele1_meta_25
*149 FE_PHN155_spi1_conf1_meta_17
*150 FE_PHN154_spi1_ele2_meta_23
*151 FE_PHN153_spi1_conf0_meta_14
*152 FE_PHN152_spi1_ele2_meta_22
*153 FE_PHN151_spi1_conf0_meta_4
*154 FE_PHN150_spi1_conf0_meta_11
*155 FE_PHN149_spi1_conf1_meta_13
*156 FE_PHN148_spi1_ele1_meta_13
*157 FE_PHN147_spi1_ele2_meta_14
*158 FE_PHN146_spi1_ele2_meta_16
*159 FE_PHN145_spi1_conf1_meta_18
*160 FE_PHN144_spi1_conf0_meta_2
*161 FE_PHN143_spi1_conf0_meta_6
*162 FE_PHN142_spi1_conf0_meta_26
*163 FE_PHN141_spi1_conf1_meta_14
*164 FE_PHN140_spi1_ele2_meta_10
*165 FE_PHN139_spi1_conf1_meta_19
*166 FE_PHN138_spi1_conf0_meta_29
*167 FE_PHN137_spi1_ele1_meta_5
*168 FE_PHN136_spi1_ele1_meta_19
*169 FE_PHN135_spi1_conf0_meta_7
*170 FE_PHN134_spi1_conf1_meta_12
*171 FE_PHN133_spi1_conf0_meta_31
*172 FE_PHN132_spi1_conf1_meta_21
*173 FE_PHN131_spi1_ele1_meta_0
*174 FE_PHN130_spi1_ele2_meta_12
*175 FE_PHN129_spi1_conf0_meta_3
*176 FE_PHN128_spi1_conf0_meta_9
*177 FE_PHN127_spi1_conf0_meta_28
*178 FE_PHN126_spi1_conf1_meta_15
*179 FE_PHN125_spi1_conf0_meta_0
*180 FE_PHN124_spi1_conf0_meta_30
*181 FE_PHN123_spi1_conf0_meta_13
*182 FE_PHN122_spi1_conf0_meta_12
*183 FE_PHN121_SPI_MOSI
*184 FE_OFN379_FE_OFN4_n_7
*185 FE_OFN378_FE_OFN42_npg1_n_375
*186 CTS_11
*187 CTS_10
*188 CTS_9
*189 CTS_8
*190 CTS_7
*191 CTS_6
*192 CTS_3
*193 CTS_2
*194 CTS_1
*195 CTS_5
*196 CTS_4
*197 FE_OFN377_FE_OFN42_npg1_n_375
*198 FE_OFN53_npg1_n_375
*199 FE_OFN52_npg1_phase_down_state
*200 FE_OFN51_DAC_0
*201 FE_OFN50_DAC_4
*202 FE_OFN49_DAC_1
*203 FE_OFN48_DAC_2
*204 FE_OFN47_DAC_3
*205 FE_OFN46_DAC_5
*206 FE_OFN45_npg1_phase_up_state
*207 FE_OFN44_up_switches_6
*208 FE_OFN43_npg1_n_375
*209 FE_OFN42_npg1_n_375
*210 FE_OFN41_npg1_n_375
*211 FE_OFN40_n_574
*212 FE_OFN39_pulse_active
*213 FE_OFN38_up_switches_0
*214 FE_OFN37_up_switches_1
*215 FE_OFN36_up_switches_4
*216 FE_OFN35_up_switches_5
*217 FE_OFN34_up_switches_7
*218 FE_OFN33_up_switches_8
*219 FE_OFN32_up_switches_9
*220 FE_OFN31_up_switches_10
*221 FE_OFN30_up_switches_11
*222 FE_OFN29_up_switches_12
*223 FE_OFN28_up_switches_13
*224 FE_OFN27_up_switches_14
*225 FE_OFN26_up_switches_15
*226 FE_OFN25_up_switches_16
*227 FE_OFN24_up_switches_17
*228 FE_OFN23_up_switches_18
*229 FE_OFN22_up_switches_19
*230 FE_OFN21_up_switches_20
*231 FE_OFN20_up_switches_21
*232 FE_OFN19_up_switches_23
*233 FE_OFN18_up_switches_24
*234 FE_OFN17_up_switches_25
*235 FE_OFN16_up_switches_26
*236 FE_OFN15_up_switches_27
*237 FE_OFN14_up_switches_28
*238 FE_OFN13_up_switches_29
*239 FE_OFN12_up_switches_30
*240 FE_OFN11_up_switches_31
*241 FE_OFN10_npg1_phase_up_state
*242 FE_OFN6_n_7
*243 FE_OFN4_n_7
*244 FE_OFN3_n_7
*245 FE_OFN2_SPI_CS
*246 FE_OFN1_SPI_CS
*247 FE_OFN0_enable
*248 enable
*249 pulse_active
*250 DAC[5]
*251 DAC[4]
*252 DAC[3]
*253 DAC[2]
*254 DAC[1]
*255 DAC[0]
*256 down_switches[31]
*257 down_switches[30]
*258 down_switches[29]
*259 down_switches[28]
*260 down_switches[27]
*261 down_switches[26]
*262 down_switches[25]
*263 down_switches[24]
*264 down_switches[23]
*265 down_switches[22]
*266 down_switches[21]
*267 down_switches[20]
*268 down_switches[19]
*269 down_switches[18]
*270 down_switches[17]
*271 down_switches[16]
*272 down_switches[15]
*273 down_switches[14]
*274 down_switches[13]
*275 down_switches[12]
*276 down_switches[11]
*277 down_switches[10]
*278 down_switches[9]
*279 down_switches[8]
*280 down_switches[7]
*281 down_switches[6]
*282 down_switches[5]
*283 down_switches[4]
*284 down_switches[3]
*285 down_switches[2]
*286 down_switches[1]
*287 down_switches[0]
*288 up_switches[31]
*289 up_switches[30]
*290 up_switches[29]
*291 up_switches[28]
*292 up_switches[27]
*293 up_switches[26]
*294 up_switches[25]
*295 up_switches[24]
*296 up_switches[23]
*297 up_switches[22]
*298 up_switches[21]
*299 up_switches[20]
*300 up_switches[19]
*301 up_switches[18]
*302 up_switches[17]
*303 up_switches[16]
*304 up_switches[15]
*305 up_switches[14]
*306 up_switches[13]
*307 up_switches[12]
*308 up_switches[11]
*309 up_switches[10]
*310 up_switches[9]
*311 up_switches[8]
*312 up_switches[7]
*313 up_switches[6]
*314 up_switches[5]
*315 up_switches[4]
*316 up_switches[3]
*317 up_switches[2]
*318 up_switches[1]
*319 up_switches[0]
*320 IC_addr[1]
*321 IC_addr[0]
*322 SPI_MOSI
*323 SPI_Clk
*324 SPI_CS
*325 porborn
*326 reset_l
*327 clk
*328 npg1_DAC_cont[5]
*329 npg1_DAC_cont[4]
*330 npg1_DAC_cont[3]
*331 npg1_DAC_cont[2]
*332 npg1_DAC_cont[1]
*333 npg1_DAC_cont[0]
*334 ele2[31]
*335 ele2[30]
*336 ele2[29]
*337 ele2[28]
*338 ele2[27]
*339 ele2[26]
*340 ele2[25]
*341 ele2[24]
*342 ele2[23]
*343 ele2[22]
*344 ele2[21]
*345 ele2[20]
*346 ele2[19]
*347 ele2[18]
*348 ele2[17]
*349 ele2[16]
*350 ele2[15]
*351 ele2[14]
*352 ele2[13]
*353 ele2[12]
*354 ele2[11]
*355 ele2[10]
*356 ele2[9]
*357 ele2[8]
*358 ele2[7]
*359 ele2[6]
*360 ele2[5]
*361 ele2[4]
*362 ele2[3]
*363 ele2[2]
*364 ele2[1]
*365 ele2[0]
*366 ele1[31]
*367 ele1[30]
*368 ele1[29]
*369 ele1[28]
*370 ele1[27]
*371 ele1[26]
*372 ele1[25]
*373 ele1[24]
*374 ele1[23]
*375 ele1[22]
*376 ele1[21]
*377 ele1[20]
*378 ele1[19]
*379 ele1[18]
*380 ele1[17]
*381 ele1[16]
*382 ele1[15]
*383 ele1[14]
*384 ele1[13]
*385 ele1[12]
*386 ele1[11]
*387 ele1[10]
*388 ele1[9]
*389 ele1[8]
*390 ele1[7]
*391 ele1[6]
*392 ele1[5]
*393 ele1[4]
*394 ele1[3]
*395 ele1[2]
*396 ele1[1]
*397 ele1[0]
*398 npg1_DOWN_accumulator[9]
*399 npg1_DOWN_accumulator[8]
*400 npg1_DOWN_accumulator[7]
*401 npg1_DOWN_accumulator[6]
*402 npg1_DOWN_accumulator[5]
*403 npg1_DOWN_accumulator[4]
*404 npg1_DOWN_accumulator[3]
*405 npg1_DOWN_accumulator[2]
*406 npg1_DOWN_accumulator[1]
*407 npg1_DOWN_accumulator[0]
*408 npg1_DOWN_count[5]
*409 npg1_DOWN_count[4]
*410 npg1_DOWN_count[3]
*411 npg1_DOWN_count[2]
*412 npg1_DOWN_count[1]
*413 npg1_DOWN_count[0]
*414 npg1_OFF_count[9]
*415 npg1_OFF_count[8]
*416 npg1_OFF_count[7]
*417 npg1_OFF_count[6]
*418 npg1_OFF_count[5]
*419 npg1_OFF_count[4]
*420 npg1_OFF_count[3]
*421 npg1_OFF_count[2]
*422 npg1_OFF_count[1]
*423 npg1_OFF_count[0]
*424 npg1_ON_count[7]
*425 npg1_ON_count[6]
*426 npg1_ON_count[5]
*427 npg1_ON_count[4]
*428 npg1_ON_count[3]
*429 npg1_ON_count[2]
*430 npg1_ON_count[1]
*431 npg1_ON_count[0]
*432 npg1_UP_accumulator[9]
*433 npg1_UP_accumulator[8]
*434 npg1_UP_accumulator[7]
*435 npg1_UP_accumulator[6]
*436 npg1_UP_accumulator[5]
*437 npg1_UP_accumulator[4]
*438 npg1_UP_accumulator[3]
*439 npg1_UP_accumulator[2]
*440 npg1_UP_accumulator[1]
*441 npg1_UP_accumulator[0]
*442 npg1_UP_count[5]
*443 npg1_UP_count[4]
*444 npg1_UP_count[3]
*445 npg1_UP_count[2]
*446 npg1_UP_count[1]
*447 npg1_UP_count[0]
*448 npg1_freq_count[11]
*449 npg1_freq_count[10]
*450 npg1_freq_count[9]
*451 npg1_freq_count[8]
*452 npg1_freq_count[7]
*453 npg1_freq_count[6]
*454 npg1_freq_count[5]
*455 npg1_freq_count[4]
*456 npg1_freq_count[3]
*457 npg1_freq_count[2]
*458 npg1_freq_count[1]
*459 npg1_freq_count[0]
*460 npg1_on_off_ctrl[2]
*461 npg1_on_off_ctrl[1]
*462 npg1_on_off_ctrl[0]
*463 npg1_phase_down_count[2]
*464 npg1_phase_down_count[1]
*465 npg1_phase_down_count[0]
*466 npg1_phase_up_count[2]
*467 npg1_phase_up_count[1]
*468 npg1_phase_up_count[0]
*469 conf1[23]
*470 conf1[22]
*471 conf1[21]
*472 conf1[19]
*473 conf1[18]
*474 conf1[17]
*475 conf1[16]
*476 conf1[15]
*477 conf1[14]
*478 conf1[13]
*479 conf1[12]
*480 conf1[11]
*481 conf1[10]
*482 conf1[9]
*483 conf1[8]
*484 conf1[7]
*485 conf1[6]
*486 conf1[5]
*487 conf1[4]
*488 conf1[3]
*489 conf1[2]
*490 conf1[1]
*491 conf1[0]
*492 conf0[31]
*493 conf0[30]
*494 conf0[29]
*495 conf0[28]
*496 conf0[27]
*497 conf0[26]
*498 conf0[25]
*499 conf0[24]
*500 conf0[23]
*501 conf0[22]
*502 conf0[21]
*503 conf0[20]
*504 conf0[19]
*505 conf0[18]
*506 conf0[17]
*507 conf0[16]
*508 conf0[15]
*509 conf0[14]
*510 conf0[13]
*511 conf0[12]
*512 conf0[11]
*513 conf0[10]
*514 conf0[9]
*515 conf0[8]
*516 conf0[7]
*517 conf0[6]
*518 conf0[5]
*519 conf0[4]
*520 conf0[3]
*521 conf0[2]
*522 conf0[1]
*523 conf0[0]
*524 spi1_conf0_asyn[31]
*525 spi1_conf0_asyn[30]
*526 spi1_conf0_asyn[29]
*527 spi1_conf0_asyn[28]
*528 spi1_conf0_asyn[27]
*529 spi1_conf0_asyn[26]
*530 spi1_conf0_asyn[25]
*531 spi1_conf0_asyn[24]
*532 spi1_conf0_asyn[23]
*533 spi1_conf0_asyn[22]
*534 spi1_conf0_asyn[21]
*535 spi1_conf0_asyn[20]
*536 spi1_conf0_asyn[19]
*537 spi1_conf0_asyn[18]
*538 spi1_conf0_asyn[17]
*539 spi1_conf0_asyn[16]
*540 spi1_conf0_asyn[15]
*541 spi1_conf0_asyn[14]
*542 spi1_conf0_asyn[13]
*543 spi1_conf0_asyn[12]
*544 spi1_conf0_asyn[11]
*545 spi1_conf0_asyn[10]
*546 spi1_conf0_asyn[9]
*547 spi1_conf0_asyn[8]
*548 spi1_conf0_asyn[7]
*549 spi1_conf0_asyn[6]
*550 spi1_conf0_asyn[5]
*551 spi1_conf0_asyn[4]
*552 spi1_conf0_asyn[3]
*553 spi1_conf0_asyn[2]
*554 spi1_conf0_asyn[1]
*555 spi1_conf0_asyn[0]
*556 spi1_conf0_meta[31]
*557 spi1_conf0_meta[30]
*558 spi1_conf0_meta[29]
*559 spi1_conf0_meta[28]
*560 spi1_conf0_meta[27]
*561 spi1_conf0_meta[26]
*562 spi1_conf0_meta[25]
*563 spi1_conf0_meta[24]
*564 spi1_conf0_meta[23]
*565 spi1_conf0_meta[22]
*566 spi1_conf0_meta[21]
*567 spi1_conf0_meta[20]
*568 spi1_conf0_meta[19]
*569 spi1_conf0_meta[18]
*570 spi1_conf0_meta[17]
*571 spi1_conf0_meta[16]
*572 spi1_conf0_meta[15]
*573 spi1_conf0_meta[14]
*574 spi1_conf0_meta[13]
*575 spi1_conf0_meta[12]
*576 spi1_conf0_meta[11]
*577 spi1_conf0_meta[10]
*578 spi1_conf0_meta[9]
*579 spi1_conf0_meta[8]
*580 spi1_conf0_meta[7]
*581 spi1_conf0_meta[6]
*582 spi1_conf0_meta[5]
*583 spi1_conf0_meta[4]
*584 spi1_conf0_meta[3]
*585 spi1_conf0_meta[2]
*586 spi1_conf0_meta[1]
*587 spi1_conf0_meta[0]
*588 spi1_conf1_asyn[23]
*589 spi1_conf1_asyn[22]
*590 spi1_conf1_asyn[21]
*591 spi1_conf1_asyn[20]
*592 spi1_conf1_asyn[19]
*593 spi1_conf1_asyn[18]
*594 spi1_conf1_asyn[17]
*595 spi1_conf1_asyn[16]
*596 spi1_conf1_asyn[15]
*597 spi1_conf1_asyn[14]
*598 spi1_conf1_asyn[13]
*599 spi1_conf1_asyn[12]
*600 spi1_conf1_asyn[11]
*601 spi1_conf1_asyn[10]
*602 spi1_conf1_asyn[9]
*603 spi1_conf1_asyn[8]
*604 spi1_conf1_asyn[7]
*605 spi1_conf1_asyn[6]
*606 spi1_conf1_asyn[5]
*607 spi1_conf1_asyn[4]
*608 spi1_conf1_asyn[3]
*609 spi1_conf1_asyn[2]
*610 spi1_conf1_asyn[1]
*611 spi1_conf1_asyn[0]
*612 spi1_conf1_meta[23]
*613 spi1_conf1_meta[22]
*614 spi1_conf1_meta[21]
*615 spi1_conf1_meta[20]
*616 spi1_conf1_meta[19]
*617 spi1_conf1_meta[18]
*618 spi1_conf1_meta[17]
*619 spi1_conf1_meta[16]
*620 spi1_conf1_meta[15]
*621 spi1_conf1_meta[14]
*622 spi1_conf1_meta[13]
*623 spi1_conf1_meta[12]
*624 spi1_conf1_meta[11]
*625 spi1_conf1_meta[10]
*626 spi1_conf1_meta[9]
*627 spi1_conf1_meta[8]
*628 spi1_conf1_meta[7]
*629 spi1_conf1_meta[6]
*630 spi1_conf1_meta[5]
*631 spi1_conf1_meta[4]
*632 spi1_conf1_meta[3]
*633 spi1_conf1_meta[2]
*634 spi1_conf1_meta[1]
*635 spi1_conf1_meta[0]
*636 spi1_ele1_asyn[31]
*637 spi1_ele1_asyn[30]
*638 spi1_ele1_asyn[29]
*639 spi1_ele1_asyn[28]
*640 spi1_ele1_asyn[27]
*641 spi1_ele1_asyn[26]
*642 spi1_ele1_asyn[25]
*643 spi1_ele1_asyn[24]
*644 spi1_ele1_asyn[23]
*645 spi1_ele1_asyn[22]
*646 spi1_ele1_asyn[21]
*647 spi1_ele1_asyn[20]
*648 spi1_ele1_asyn[19]
*649 spi1_ele1_asyn[18]
*650 spi1_ele1_asyn[17]
*651 spi1_ele1_asyn[16]
*652 spi1_ele1_asyn[15]
*653 spi1_ele1_asyn[14]
*654 spi1_ele1_asyn[13]
*655 spi1_ele1_asyn[12]
*656 spi1_ele1_asyn[11]
*657 spi1_ele1_asyn[10]
*658 spi1_ele1_asyn[9]
*659 spi1_ele1_asyn[8]
*660 spi1_ele1_asyn[7]
*661 spi1_ele1_asyn[6]
*662 spi1_ele1_asyn[5]
*663 spi1_ele1_asyn[4]
*664 spi1_ele1_asyn[3]
*665 spi1_ele1_asyn[2]
*666 spi1_ele1_asyn[1]
*667 spi1_ele1_asyn[0]
*668 spi1_ele1_meta[31]
*669 spi1_ele1_meta[30]
*670 spi1_ele1_meta[29]
*671 spi1_ele1_meta[28]
*672 spi1_ele1_meta[27]
*673 spi1_ele1_meta[26]
*674 spi1_ele1_meta[25]
*675 spi1_ele1_meta[24]
*676 spi1_ele1_meta[23]
*677 spi1_ele1_meta[22]
*678 spi1_ele1_meta[21]
*679 spi1_ele1_meta[20]
*680 spi1_ele1_meta[19]
*681 spi1_ele1_meta[18]
*682 spi1_ele1_meta[17]
*683 spi1_ele1_meta[16]
*684 spi1_ele1_meta[15]
*685 spi1_ele1_meta[14]
*686 spi1_ele1_meta[13]
*687 spi1_ele1_meta[12]
*688 spi1_ele1_meta[11]
*689 spi1_ele1_meta[10]
*690 spi1_ele1_meta[9]
*691 spi1_ele1_meta[8]
*692 spi1_ele1_meta[7]
*693 spi1_ele1_meta[6]
*694 spi1_ele1_meta[5]
*695 spi1_ele1_meta[4]
*696 spi1_ele1_meta[3]
*697 spi1_ele1_meta[2]
*698 spi1_ele1_meta[1]
*699 spi1_ele1_meta[0]
*700 spi1_ele2_asyn[31]
*701 spi1_ele2_asyn[30]
*702 spi1_ele2_asyn[29]
*703 spi1_ele2_asyn[28]
*704 spi1_ele2_asyn[27]
*705 spi1_ele2_asyn[26]
*706 spi1_ele2_asyn[25]
*707 spi1_ele2_asyn[24]
*708 spi1_ele2_asyn[23]
*709 spi1_ele2_asyn[22]
*710 spi1_ele2_asyn[21]
*711 spi1_ele2_asyn[20]
*712 spi1_ele2_asyn[19]
*713 spi1_ele2_asyn[18]
*714 spi1_ele2_asyn[17]
*715 spi1_ele2_asyn[16]
*716 spi1_ele2_asyn[15]
*717 spi1_ele2_asyn[14]
*718 spi1_ele2_asyn[13]
*719 spi1_ele2_asyn[12]
*720 spi1_ele2_asyn[11]
*721 spi1_ele2_asyn[10]
*722 spi1_ele2_asyn[9]
*723 spi1_ele2_asyn[8]
*724 spi1_ele2_asyn[7]
*725 spi1_ele2_asyn[6]
*726 spi1_ele2_asyn[5]
*727 spi1_ele2_asyn[4]
*728 spi1_ele2_asyn[3]
*729 spi1_ele2_asyn[2]
*730 spi1_ele2_asyn[1]
*731 spi1_ele2_asyn[0]
*732 spi1_ele2_meta[31]
*733 spi1_ele2_meta[30]
*734 spi1_ele2_meta[29]
*735 spi1_ele2_meta[28]
*736 spi1_ele2_meta[27]
*737 spi1_ele2_meta[26]
*738 spi1_ele2_meta[25]
*739 spi1_ele2_meta[24]
*740 spi1_ele2_meta[23]
*741 spi1_ele2_meta[22]
*742 spi1_ele2_meta[21]
*743 spi1_ele2_meta[20]
*744 spi1_ele2_meta[19]
*745 spi1_ele2_meta[18]
*746 spi1_ele2_meta[17]
*747 spi1_ele2_meta[16]
*748 spi1_ele2_meta[15]
*749 spi1_ele2_meta[14]
*750 spi1_ele2_meta[13]
*751 spi1_ele2_meta[12]
*752 spi1_ele2_meta[11]
*753 spi1_ele2_meta[10]
*754 spi1_ele2_meta[9]
*755 spi1_ele2_meta[8]
*756 spi1_ele2_meta[7]
*757 spi1_ele2_meta[6]
*758 spi1_ele2_meta[5]
*759 spi1_ele2_meta[4]
*760 spi1_ele2_meta[3]
*761 spi1_ele2_meta[2]
*762 spi1_ele2_meta[1]
*763 spi1_ele2_meta[0]
*764 spi1_Rx_count[5]
*765 spi1_Rx_count[4]
*766 spi1_Rx_count[3]
*767 spi1_Rx_count[2]
*768 spi1_Rx_count[1]
*769 spi1_Rx_count[0]
*770 spi1_Rx_data_temp[39]
*771 spi1_Rx_data_temp[38]
*772 spi1_Rx_data_temp[37]
*773 spi1_Rx_data_temp[36]
*774 spi1_Rx_data_temp[35]
*775 spi1_Rx_data_temp[34]
*776 spi1_Rx_data_temp[33]
*777 spi1_Rx_data_temp[32]
*778 spi1_Rx_data_temp[31]
*779 spi1_Rx_data_temp[30]
*780 spi1_Rx_data_temp[29]
*781 spi1_Rx_data_temp[28]
*782 spi1_Rx_data_temp[27]
*783 spi1_Rx_data_temp[26]
*784 spi1_Rx_data_temp[25]
*785 spi1_Rx_data_temp[24]
*786 spi1_Rx_data_temp[23]
*787 spi1_Rx_data_temp[22]
*788 spi1_Rx_data_temp[21]
*789 spi1_Rx_data_temp[20]
*790 spi1_Rx_data_temp[19]
*791 spi1_Rx_data_temp[18]
*792 spi1_Rx_data_temp[17]
*793 spi1_Rx_data_temp[16]
*794 spi1_Rx_data_temp[15]
*795 spi1_Rx_data_temp[14]
*796 spi1_Rx_data_temp[13]
*797 spi1_Rx_data_temp[12]
*798 spi1_Rx_data_temp[11]
*799 spi1_Rx_data_temp[10]
*800 spi1_Rx_data_temp[9]
*801 spi1_Rx_data_temp[8]
*802 spi1_Rx_data_temp[7]
*803 spi1_Rx_data_temp[6]
*804 spi1_Rx_data_temp[5]
*805 spi1_Rx_data_temp[4]
*806 spi1_Rx_data_temp[3]
*807 spi1_Rx_data_temp[2]
*808 spi1_Rx_data_temp[1]
*809 spi1_Rx_data_temp[0]
*810 n_0
*811 n_1
*812 n_2
*813 n_3
*814 n_4
*815 n_5
*816 n_6
*817 n_8
*818 n_9
*819 n_10
*820 n_11
*821 n_12
*822 n_13
*823 n_14
*824 n_15
*825 n_16
*826 n_17
*827 n_19
*828 n_20
*829 n_21
*830 n_22
*831 n_23
*832 n_24
*833 n_25
*834 n_26
*835 n_27
*836 n_28
*837 n_29
*838 n_30
*839 n_31
*840 n_32
*841 n_33
*842 n_34
*843 n_35
*844 n_36
*845 n_37
*846 n_38
*847 n_39
*848 n_40
*849 n_41
*850 n_42
*851 n_43
*852 n_44
*853 n_45
*854 n_46
*855 n_47
*856 n_48
*857 n_49
*858 n_50
*859 n_51
*860 n_52
*861 n_53
*862 n_54
*863 n_55
*864 n_56
*865 n_57
*866 n_58
*867 n_59
*868 n_60
*869 n_61
*870 n_62
*871 n_63
*872 n_64
*873 n_65
*874 n_66
*875 n_67
*876 n_68
*877 n_69
*878 n_70
*879 n_71
*880 n_72
*881 n_73
*882 n_74
*883 n_75
*884 n_76
*885 n_77
*886 n_78
*887 n_79
*888 n_80
*889 n_81
*890 n_82
*891 n_83
*892 n_84
*893 n_85
*894 n_86
*895 n_87
*896 n_88
*897 n_89
*898 n_90
*899 n_91
*900 n_92
*901 n_93
*902 n_94
*903 n_95
*904 n_96
*905 n_97
*906 n_98
*907 n_99
*908 n_100
*909 n_101
*910 n_102
*911 n_103
*912 n_104
*913 n_105
*914 n_106
*915 n_107
*916 n_108
*917 n_109
*918 n_110
*919 n_111
*920 n_112
*921 n_113
*922 n_114
*923 n_115
*924 n_116
*925 n_117
*926 n_118
*927 n_119
*928 n_120
*929 n_121
*930 n_122
*931 n_123
*932 n_124
*933 n_125
*934 n_126
*935 n_127
*936 n_128
*937 n_129
*938 n_131
*939 n_132
*940 n_133
*941 n_134
*942 n_135
*943 n_136
*944 n_137
*945 n_138
*946 n_139
*947 n_140
*948 n_141
*949 n_142
*950 n_143
*951 n_144
*952 n_145
*953 n_146
*954 n_147
*955 n_148
*956 n_149
*957 n_150
*958 n_151
*959 n_152
*960 n_153
*961 n_154
*962 n_155
*963 n_156
*964 n_157
*965 n_158
*966 n_159
*967 n_160
*968 n_161
*969 n_162
*970 n_163
*971 n_164
*972 n_165
*973 n_166
*974 n_167
*975 n_168
*976 n_169
*977 n_170
*978 n_171
*979 n_172
*980 n_173
*981 n_174
*982 n_175
*983 n_176
*984 n_177
*985 n_178
*986 n_179
*987 n_180
*988 n_181
*989 n_182
*990 n_183
*991 n_184
*992 n_185
*993 n_186
*994 n_187
*995 n_188
*996 n_189
*997 n_190
*998 n_191
*999 n_192
*1000 n_193
*1001 n_194
*1002 n_195
*1003 n_196
*1004 n_197
*1005 n_198
*1006 n_199
*1007 n_200
*1008 n_201
*1009 n_202
*1010 n_203
*1011 n_204
*1012 n_205
*1013 n_206
*1014 n_207
*1015 n_208
*1016 n_209
*1017 n_210
*1018 n_211
*1019 n_212
*1020 n_213
*1021 n_214
*1022 n_215
*1023 n_216
*1024 n_217
*1025 n_218
*1026 n_219
*1027 n_220
*1028 n_221
*1029 n_222
*1030 n_223
*1031 n_224
*1032 n_225
*1033 n_226
*1034 n_229
*1035 n_230
*1036 n_231
*1037 n_232
*1038 n_233
*1039 n_234
*1040 n_235
*1041 n_236
*1042 n_237
*1043 n_238
*1044 n_239
*1045 n_240
*1046 n_241
*1047 n_242
*1048 n_244
*1049 n_245
*1050 n_246
*1051 n_247
*1052 n_248
*1053 n_249
*1054 n_250
*1055 n_251
*1056 n_252
*1057 n_253
*1058 n_254
*1059 n_255
*1060 n_256
*1061 n_257
*1062 n_258
*1063 n_259
*1064 n_260
*1065 n_261
*1066 n_262
*1067 n_263
*1068 n_265
*1069 n_266
*1070 n_267
*1071 n_268
*1072 n_269
*1073 n_270
*1074 n_271
*1075 n_272
*1076 n_273
*1077 n_274
*1078 n_275
*1079 n_276
*1080 n_277
*1081 n_278
*1082 n_279
*1083 n_280
*1084 n_281
*1085 n_282
*1086 n_283
*1087 n_284
*1088 n_285
*1089 n_286
*1090 n_288
*1091 n_289
*1092 n_290
*1093 n_291
*1094 n_292
*1095 n_293
*1096 n_294
*1097 n_295
*1098 n_296
*1099 n_297
*1100 n_298
*1101 n_299
*1102 n_300
*1103 n_301
*1104 n_302
*1105 n_303
*1106 n_304
*1107 n_305
*1108 n_306
*1109 n_307
*1110 n_308
*1111 n_309
*1112 n_310
*1113 n_311
*1114 n_312
*1115 n_313
*1116 n_314
*1117 n_315
*1118 n_316
*1119 n_317
*1120 n_318
*1121 n_319
*1122 n_320
*1123 n_321
*1124 n_322
*1125 n_323
*1126 n_324
*1127 n_325
*1128 n_326
*1129 n_327
*1130 n_328
*1131 n_329
*1132 n_330
*1133 n_331
*1134 n_332
*1135 n_333
*1136 n_334
*1137 n_335
*1138 n_336
*1139 n_337
*1140 n_338
*1141 n_339
*1142 n_340
*1143 n_341
*1144 n_342
*1145 n_343
*1146 n_344
*1147 n_345
*1148 n_346
*1149 n_347
*1150 n_348
*1151 n_349
*1152 n_350
*1153 n_351
*1154 n_352
*1155 n_353
*1156 n_354
*1157 n_355
*1158 n_356
*1159 n_357
*1160 n_358
*1161 n_359
*1162 n_360
*1163 n_361
*1164 n_362
*1165 n_363
*1166 n_364
*1167 n_365
*1168 n_366
*1169 n_367
*1170 n_368
*1171 n_369
*1172 n_370
*1173 n_371
*1174 n_372
*1175 n_373
*1176 n_374
*1177 n_375
*1178 n_376
*1179 n_377
*1180 n_378
*1181 n_379
*1182 n_380
*1183 n_381
*1184 n_382
*1185 n_383
*1186 n_384
*1187 n_385
*1188 n_386
*1189 n_387
*1190 n_388
*1191 n_389
*1192 n_390
*1193 n_391
*1194 n_392
*1195 n_393
*1196 n_394
*1197 n_395
*1198 n_396
*1199 n_397
*1200 n_398
*1201 n_399
*1202 n_400
*1203 n_401
*1204 n_402
*1205 n_403
*1206 n_404
*1207 n_405
*1208 n_406
*1209 n_407
*1210 n_408
*1211 n_409
*1212 n_410
*1213 n_411
*1214 n_412
*1215 n_413
*1216 n_414
*1217 n_415
*1218 n_416
*1219 n_417
*1220 n_418
*1221 n_419
*1222 n_420
*1223 n_421
*1224 n_422
*1225 n_423
*1226 n_424
*1227 n_425
*1228 n_426
*1229 n_427
*1230 n_428
*1231 n_429
*1232 n_430
*1233 n_431
*1234 n_432
*1235 n_433
*1236 n_434
*1237 n_435
*1238 n_436
*1239 n_437
*1240 n_438
*1241 n_439
*1242 n_440
*1243 n_441
*1244 n_442
*1245 n_443
*1246 n_444
*1247 n_445
*1248 n_446
*1249 n_447
*1250 n_448
*1251 n_449
*1252 n_450
*1253 n_451
*1254 n_452
*1255 n_453
*1256 n_454
*1257 n_455
*1258 n_456
*1259 n_457
*1260 n_458
*1261 n_459
*1262 n_460
*1263 n_461
*1264 n_462
*1265 n_463
*1266 n_464
*1267 n_465
*1268 n_466
*1269 n_467
*1270 n_468
*1271 n_469
*1272 n_470
*1273 n_471
*1274 n_472
*1275 n_473
*1276 n_474
*1277 n_475
*1278 n_476
*1279 n_477
*1280 n_478
*1281 n_479
*1282 n_480
*1283 n_481
*1284 n_482
*1285 n_483
*1286 n_484
*1287 n_485
*1288 n_486
*1289 n_487
*1290 n_488
*1291 n_489
*1292 n_490
*1293 n_491
*1294 n_492
*1295 n_493
*1296 n_494
*1297 n_495
*1298 n_496
*1299 n_497
*1300 n_498
*1301 n_499
*1302 n_500
*1303 n_501
*1304 n_502
*1305 n_503
*1306 n_504
*1307 n_505
*1308 n_506
*1309 n_507
*1310 n_509
*1311 n_512
*1312 n_513
*1313 n_514
*1314 n_515
*1315 n_516
*1316 n_517
*1317 n_518
*1318 n_519
*1319 n_520
*1320 n_521
*1321 n_522
*1322 n_523
*1323 n_524
*1324 n_525
*1325 n_527
*1326 n_528
*1327 n_529
*1328 n_530
*1329 n_531
*1330 n_532
*1331 n_533
*1332 n_534
*1333 n_535
*1334 n_536
*1335 n_537
*1336 n_538
*1337 n_539
*1338 n_540
*1339 n_541
*1340 n_542
*1341 n_543
*1342 n_544
*1343 n_545
*1344 n_546
*1345 n_547
*1346 n_548
*1347 n_549
*1348 n_550
*1349 n_551
*1350 n_553
*1351 n_554
*1352 n_555
*1353 n_556
*1354 n_557
*1355 n_558
*1356 n_559
*1357 n_560
*1358 n_561
*1359 n_562
*1360 n_563
*1361 n_564
*1362 n_565
*1363 n_566
*1364 n_567
*1365 n_568
*1366 n_569
*1367 n_570
*1368 n_571
*1369 n_572
*1370 n_574
*1371 n_576
*1372 n_577
*1373 n_578
*1374 n_579
*1375 n_580
*1376 n_581
*1377 n_582
*1378 n_583
*1379 n_584
*1380 n_585
*1381 n_586
*1382 n_587
*1383 n_588
*1384 n_589
*1385 n_590
*1386 n_591
*1387 n_592
*1388 n_593
*1389 n_594
*1390 n_595
*1391 n_596
*1392 n_597
*1393 n_598
*1394 n_599
*1395 n_600
*1396 n_601
*1397 n_602
*1398 n_603
*1399 n_604
*1400 n_611
*1401 n_621
*1402 n_623
*1403 n_637
*1404 n_638
*1405 n_639
*1406 n_640
*1407 n_641
*1408 n_642
*1409 n_643
*1410 n_644
*1411 n_645
*1412 n_646
*1413 n_647
*1414 n_648
*1415 n_649
*1416 n_733
*1417 n_734
*1418 n_735
*1419 npg1_n_375
*1420 npg1_phase_down_state
*1421 npg1_phase_pause_ready
*1422 npg1_phase_up_state
*1423 npg1_pulse_aux
*1424 npg1_pulse_start
*1425 spi1_n_1763
*1426 spi1_n_1924
*1427 spi1_n_1926
*1428 spi1_n_1929
*1429 spi1_n_1930
*1430 spi1_n_1962
*1431 spi1_n_1964
*1432 spi1_n_1994
*1433 spi1_n_1995
*1434 spi1_n_1998
*1435 spi1_n_1999
*1436 spi1_n_2000
*1437 spi1_n_2001
*1438 spi1_n_2008
*1439 spi1_n_2010
*1440 spi1_n_2014
*1441 spi1_n_2015
*1442 spi1_n_2017
*1443 spi1_n_2018
*1444 spi1_n_2088
*1445 spi1_n_2270
*1446 spi1_n_2271
*1447 spi1_n_2272
*1448 FE_PHC303_SPI_CS
*1449 FE_PHC302_FE_OFN378_FE_OFN42_npg1_n_375
*1450 FE_PHC301_FE_OFN378_FE_OFN42_npg1_n_375
*1451 FE_PHC300_FE_OFN378_FE_OFN42_npg1_n_375
*1452 FE_PHC299_FE_OFN378_FE_OFN42_npg1_n_375
*1453 FE_PHC298_FE_OFN378_FE_OFN42_npg1_n_375
*1454 FE_PHC297_FE_OFN378_FE_OFN42_npg1_n_375
*1455 FE_PHC296_FE_OFN378_FE_OFN42_npg1_n_375
*1456 FE_PHC295_FE_OFN378_FE_OFN42_npg1_n_375
*1457 FE_PHC294_FE_OFN378_FE_OFN42_npg1_n_375
*1458 FE_PHC293_FE_OFN378_FE_OFN42_npg1_n_375
*1459 FE_PHC292_FE_OFN378_FE_OFN42_npg1_n_375
*1460 FE_PHC291_FE_OFN378_FE_OFN42_npg1_n_375
*1461 FE_PHC290_FE_OFN378_FE_OFN42_npg1_n_375
*1462 FE_PHC289_FE_OFN378_FE_OFN42_npg1_n_375
*1463 FE_PHC288_FE_OFN378_FE_OFN42_npg1_n_375
*1464 FE_PHC287_FE_OFN42_npg1_n_375
*1465 FE_PHC286_FE_OFN42_npg1_n_375
*1466 FE_PHC285_FE_OFN42_npg1_n_375
*1467 FE_PHC284_FE_OFN42_npg1_n_375
*1468 FE_PHC283_FE_OFN42_npg1_n_375
*1469 FE_PHC282_FE_OFN42_npg1_n_375
*1470 FE_PHC281_npg1_n_375
*1471 FE_PHC280_FE_OFN3_n_7
*1472 FE_PHC279_npg1_n_375
*1473 FE_PHC278_FE_OFN42_npg1_n_375
*1474 FE_PHC277_FE_OFN3_n_7
*1475 FE_PHC276_npg1_n_375
*1476 FE_PHC275_SPI_CS
*1477 FE_PHC274_npg1_n_375
*1478 FE_PHC273_SPI_CS
*1479 FE_PHC272_porborn
*1480 FE_PHC271_SPI_MOSI
*1481 FE_PHC270_SPI_CS
*1482 FE_PHC269_spi1_Rx_data_temp_35
*1483 FE_PHC268_SPI_CS
*1484 FE_PHC267_spi1_Rx_data_temp_36
*1485 FE_PHC266_n_338
*1486 FE_PHC265_spi1_n_1763
*1487 FE_PHC264_n_491
*1488 FE_PHC263_porborn
*1489 FE_PHC262_npg1_OFF_count_8
*1490 FE_PHC261_npg1_UP_count_5
*1491 FE_PHC260_npg1_DOWN_count_4
*1492 FE_PHC259_npg1_DAC_cont_2
*1493 FE_PHC258_spi1_Rx_count_4
*1494 FE_PHC257_npg1_DOWN_accumulator_0
*1495 FE_PHC256_spi1_Rx_data_temp_37
*1496 FE_PHC255_npg1_freq_count_8
*1497 FE_PHC254_spi1_Rx_data_temp_34
*1498 FE_PHC253_npg1_DOWN_count_5
*1499 FE_PHC252_npg1_UP_accumulator_0
*1500 FE_PHC251_npg1_OFF_count_0
*1501 FE_PHC250_npg1_DAC_cont_0
*1502 FE_PHC249_npg1_phase_down_count_1
*1503 FE_PHC248_spi1_Rx_count_1
*1504 FE_PHC247_npg1_freq_count_0
*1505 FE_PHC246_npg1_ON_count_6
*1506 FE_PHC245_npg1_OFF_count_5
*1507 FE_PHC244_npg1_OFF_count_3
*1508 FE_PHC243_spi1_conf1_meta_5
*1509 FE_PHC242_npg1_ON_count_7
*1510 FE_PHC241_spi1_conf1_meta_0
*1511 FE_PHC240_spi1_conf1_meta_4
*1512 FE_PHC239_spi1_conf1_meta_9
*1513 FE_PHC238_spi1_conf1_meta_7
*1514 FE_PHC237_spi1_ele1_meta_30