** Layout Netlist, pvs precompare
** 

.subckt aska_dig DAC<0> DAC<1> DAC<2> DAC<3> DAC<4> DAC<5> IC_addr<0> IC_addr<1> SPI_CS SPI_Clk SPI_MOSI clk down_switches<0> down_switches<10> down_switches<11> down_switches<12> down_switches<13> down_switches<14> down_switches<15> down_switches<16> 
+ down_switches<17> down_switches<18> down_switches<19> down_switches<1> down_switches<20> down_switches<21> down_switches<22> down_switches<23> down_switches<24> down_switches<25> down_switches<26> down_switches<27> down_switches<28> down_switches<29> down_switches<2> down_switches<30> down_switches<31> down_switches<3> down_switches<4> down_switches<5> 
+ down_switches<6> down_switches<7> down_switches<8> down_switches<9> enable porborn pulse_active reset_l up_switches<0> up_switches<10> up_switches<11> up_switches<12> up_switches<13> up_switches<14> up_switches<15> up_switches<16> up_switches<17> up_switches<18> up_switches<19> up_switches<1> 
+ up_switches<20> up_switches<21> up_switches<22> up_switches<23> up_switches<24> up_switches<25> up_switches<26> up_switches<27> up_switches<28> up_switches<29> up_switches<2> up_switches<30> up_switches<31> up_switches<3> up_switches<4> up_switches<5> up_switches<6> up_switches<7> up_switches<8> up_switches<9> 
MX8323/M0 1 69 X8323/6 1 NE3I L=3.5e-07 W=6e-07 AD=2.96727e-13 AS=2.88e-13 PD=1.69091e-06 PS=2.16e-06 m=1 
MX8323/M1 66 X8323/6 1 1 NE3I L=3.5e-07 W=7.2e-07 AD=2.016e-13 AS=3.56073e-13 PD=1.512e-06 PS=2.02909e-06 m=1 
MX8323/M2 1 X8323/6 66 1 NE3I L=3.5e-07 W=4.8e-07 AD=4.648e-13 AS=1.344e-13 PD=3.52e-06 PS=1.008e-06 m=1 
MX8323/M3 3 69 X8323/6 3 PE3I L=3e-07 W=1.1e-06 AD=5.39943e-13 AS=5.28e-13 PD=2.20442e-06 PS=3.16e-06 m=1 
MX8323/M4 66 X8323/6 3 3 PE3I L=3.00472e-07 W=1.45971e-06 AD=2.751e-13 AS=7.16507e-13 PD=1.87971e-06 PS=2.92528e-06 m=1 
MX8323/M5 3 X8323/6 66 3 PE3I L=3.00472e-07 W=1.45971e-06 AD=8.6265e-13 AS=2.751e-13 PD=4.56971e-06 PS=1.87971e-06 m=1 
MX8324/M0 1 570 X8324/6 1 NE3I L=3.5e-07 W=6e-07 AD=2.96727e-13 AS=2.88e-13 PD=1.69091e-06 PS=2.16e-06 m=1 
MX8324/M1 up_switches<31> X8324/6 1 1 NE3I L=3.5e-07 W=7.2e-07 AD=2.016e-13 AS=3.56073e-13 PD=1.512e-06 PS=2.02909e-06 m=1 
MX8324/M2 1 X8324/6 up_switches<31> 1 NE3I L=3.5e-07 W=4.8e-07 AD=4.648e-13 AS=1.344e-13 PD=3.52e-06 PS=1.008e-06 m=1 
MX8324/M3 3 570 X8324/6 3 PE3I L=3e-07 W=1.1e-06 AD=5.39943e-13 AS=5.28e-13 PD=2.20442e-06 PS=3.16e-06 m=1 
MX8324/M4 up_switches<31> X8324/6 3 3 PE3I L=3.00472e-07 W=1.45971e-06 AD=2.751e-13 AS=7.16507e-13 PD=1.87971e-06 PS=2.92528e-06 m=1 
MX8324/M5 3 X8324/6 up_switches<31> 3 PE3I L=3.00472e-07 W=1.45971e-06 AD=8.6265e-13 AS=2.751e-13 PD=4.56971e-06 PS=1.87971e-06 m=1 
MX8325/M0 1 1102 X8325/6 1 NE3I L=3.5e-07 W=6e-07 AD=2.96727e-13 AS=2.88e-13 PD=1.69091e-06 PS=2.16e-06 m=1 
MX8325/M1 up_switches<30> X8325/6 1 1 NE3I L=3.5e-07 W=7.2e-07 AD=2.016e-13 AS=3.56073e-13 PD=1.512e-06 PS=2.02909e-06 m=1 
MX8325/M2 1 X8325/6 up_switches<30> 1 NE3I L=3.5e-07 W=4.8e-07 AD=4.648e-13 AS=1.344e-13 PD=3.52e-06 PS=1.008e-06 m=1 
MX8325/M3 3 1102 X8325/6 3 PE3I L=3e-07 W=1.1e-06 AD=5.39943e-13 AS=5.28e-13 PD=2.20442e-06 PS=3.16e-06 m=1 
MX8325/M4 up_switches<30> X8325/6 3 3 PE3I L=3.00472e-07 W=1.45971e-06 AD=2.751e-13 AS=7.16507e-13 PD=1.87971e-06 PS=2.92528e-06 m=1 
MX8325/M5 3 X8325/6 up_switches<30> 3 PE3I L=3.00472e-07 W=1.45971e-06 AD=8.6265e-13 AS=2.751e-13 PD=4.56971e-06 PS=1.87971e-06 m=1 
MX8326/M0 1 1249 X8326/6 1 NE3I L=3.5e-07 W=6e-07 AD=2.96727e-13 AS=2.88e-13 PD=1.69091e-06 PS=2.16e-06 m=1 
MX8326/M1 up_switches<29> X8326/6 1 1 NE3I L=3.5e-07 W=7.2e-07 AD=2.016e-13 AS=3.56073e-13 PD=1.512e-06 PS=2.02909e-06 m=1 
MX8326/M2 1 X8326/6 up_switches<29> 1 NE3I L=3.5e-07 W=4.8e-07 AD=4.648e-13 AS=1.344e-13 PD=3.52e-06 PS=1.008e-06 m=1 
MX8326/M3 3 1249 X8326/6 3 PE3I L=3e-07 W=1.1e-06 AD=5.39943e-13 AS=5.28e-13 PD=2.20442e-06 PS=3.16e-06 m=1 
MX8326/M4 up_switches<29> X8326/6 3 3 PE3I L=3.00472e-07 W=1.45971e-06 AD=2.751e-13 AS=7.16507e-13 PD=1.87971e-06 PS=2.92528e-06 m=1 
MX8326/M5 3 X8326/6 up_switches<29> 3 PE3I L=3.00472e-07 W=1.45971e-06 AD=8.6265e-13 AS=2.751e-13 PD=4.56971e-06 PS=1.87971e-06 m=1 
MX8327/M0 1 578 X8327/6 1 NE3I L=3.5e-07 W=6e-07 AD=2.96727e-13 AS=2.88e-13 PD=1.69091e-06 PS=2.16e-06 m=1 
MX8327/M1 518 X8327/6 1 1 NE3I L=3.5e-07 W=7.2e-07 AD=2.016e-13 AS=3.56073e-13 PD=1.512e-06 PS=2.02909e-06 m=1 
MX8327/M2 1 X8327/6 518 1 NE3I L=3.5e-07 W=4.8e-07 AD=4.648e-13 AS=1.344e-13 PD=3.52e-06 PS=1.008e-06 m=1 
MX8327/M3 3 578 X8327/6 3 PE3I L=3e-07 W=1.1e-06 AD=5.39943e-13 AS=5.28e-13 PD=2.20442e-06 PS=3.16e-06 m=1 
MX8327/M4 518 X8327/6 3 3 PE3I L=3.00472e-07 W=1.45971e-06 AD=2.751e-13 AS=7.16507e-13 PD=1.87971e-06 PS=2.92528e-06 m=1 
MX8327/M5 3 X8327/6 518 3 PE3I L=3.00472e-07 W=1.45971e-06 AD=8.6265e-13 AS=2.751e-13 PD=4.56971e-06 PS=1.87971e-06 m=1 
MX8328/M0 1 966 X8328/6 1 NE3I L=3.5e-07 W=6e-07 AD=2.96727e-13 AS=2.88e-13 PD=1.69091e-06 PS=2.16e-06 m=1 
MX8328/M1 up_switches<28> X8328/6 1 1 NE3I L=3.5e-07 W=7.2e-07 AD=2.016e-13 AS=3.56073e-13 PD=1.512e-06 PS=2.02909e-06 m=1 
MX8328/M2 1 X8328/6 up_switches<28> 1 NE3I L=3.5e-07 W=4.8e-07 AD=4.648e-13 AS=1.344e-13 PD=3.52e-06 PS=1.008e-06 m=1 
MX8328/M3 3 966 X8328/6 3 PE3I L=3e-07 W=1.1e-06 AD=5.39943e-13 AS=5.28e-13 PD=2.20442e-06 PS=3.16e-06 m=1 
MX8328/M4 up_switches<28> X8328/6 3 3 PE3I L=3.00472e-07 W=1.45971e-06 AD=2.751e-13 AS=7.16507e-13 PD=1.87971e-06 PS=2.92528e-06 m=1 
MX8328/M5 3 X8328/6 up_switches<28> 3 PE3I L=3.00472e-07 W=1.45971e-06 AD=8.6265e-13 AS=2.751e-13 PD=4.56971e-06 PS=1.87971e-06 m=1 
MX8329/M0 1 607 X8329/6 1 NE3I L=3.5e-07 W=6e-07 AD=2.96727e-13 AS=2.88e-13 PD=1.69091e-06 PS=2.16e-06 m=1 
MX8329/M1 536 X8329/6 1 1 NE3I L=3.5e-07 W=7.2e-07 AD=2.016e-13 AS=3.56073e-13 PD=1.512e-06 PS=2.02909e-06 m=1 
MX8329/M2 1 X8329/6 536 1 NE3I L=3.5e-07 W=4.8e-07 AD=4.648e-13 AS=1.344e-13 PD=3.52e-06 PS=1.008e-06 m=1 
MX8329/M3 3 607 X8329/6 3 PE3I L=3e-07 W=1.1e-06 AD=5.39943e-13 AS=5.28e-13 PD=2.20442e-06 PS=3.16e-06 m=1 
MX8329/M4 536 X8329/6 3 3 PE3I L=3.00472e-07 W=1.45971e-06 AD=2.751e-13 AS=7.16507e-13 PD=1.87971e-06 PS=2.92528e-06 m=1 
MX8329/M5 3 X8329/6 536 3 PE3I L=3.00472e-07 W=1.45971e-06 AD=8.6265e-13 AS=2.751e-13 PD=4.56971e-06 PS=1.87971e-06 m=1 
MX8330/M0 1 104 X8330/6 1 NE3I L=3.5e-07 W=6e-07 AD=2.96727e-13 AS=2.88e-13 PD=1.69091e-06 PS=2.16e-06 m=1 
MX8330/M1 up_switches<27> X8330/6 1 1 NE3I L=3.5e-07 W=7.2e-07 AD=2.016e-13 AS=3.56073e-13 PD=1.512e-06 PS=2.02909e-06 m=1 
MX8330/M2 1 X8330/6 up_switches<27> 1 NE3I L=3.5e-07 W=4.8e-07 AD=4.648e-13 AS=1.344e-13 PD=3.52e-06 PS=1.008e-06 m=1 
MX8330/M3 3 104 X8330/6 3 PE3I L=3e-07 W=1.1e-06 AD=5.39943e-13 AS=5.28e-13 PD=2.20442e-06 PS=3.16e-06 m=1 
MX8330/M4 up_switches<27> X8330/6 3 3 PE3I L=3.00472e-07 W=1.45971e-06 AD=2.751e-13 AS=7.16507e-13 PD=1.87971e-06 PS=2.92528e-06 m=1 
MX8330/M5 3 X8330/6 up_switches<27> 3 PE3I L=3.00472e-07 W=1.45971e-06 AD=8.6265e-13 AS=2.751e-13 PD=4.56971e-06 PS=1.87971e-06 m=1 
MX8331/M0 1 571 X8331/6 1 NE3I L=3.5e-07 W=6e-07 AD=2.96727e-13 AS=2.88e-13 PD=1.69091e-06 PS=2.16e-06 m=1 
MX8331/M1 up_switches<26> X8331/6 1 1 NE3I L=3.5e-07 W=7.2e-07 AD=2.016e-13 AS=3.56073e-13 PD=1.512e-06 PS=2.02909e-06 m=1 
MX8331/M2 1 X8331/6 up_switches<26> 1 NE3I L=3.5e-07 W=4.8e-07 AD=4.648e-13 AS=1.344e-13 PD=3.52e-06 PS=1.008e-06 m=1 
MX8331/M3 3 571 X8331/6 3 PE3I L=3e-07 W=1.1e-06 AD=5.39943e-13 AS=5.28e-13 PD=2.20442e-06 PS=3.16e-06 m=1 
MX8331/M4 up_switches<26> X8331/6 3 3 PE3I L=3.00472e-07 W=1.45971e-06 AD=2.751e-13 AS=7.16507e-13 PD=1.87971e-06 PS=2.92528e-06 m=1 
MX8331/M5 3 X8331/6 up_switches<26> 3 PE3I L=3.00472e-07 W=1.45971e-06 AD=8.6265e-13 AS=2.751e-13 PD=4.56971e-06 PS=1.87971e-06 m=1 
MX8332/M0 1 575 X8332/6 1 NE3I L=3.5e-07 W=6e-07 AD=2.96727e-13 AS=2.88e-13 PD=1.69091e-06 PS=2.16e-06 m=1 
MX8332/M1 up_switches<25> X8332/6 1 1 NE3I L=3.5e-07 W=7.2e-07 AD=2.016e-13 AS=3.56073e-13 PD=1.512e-06 PS=2.02909e-06 m=1 
MX8332/M2 1 X8332/6 up_switches<25> 1 NE3I L=3.5e-07 W=4.8e-07 AD=4.648e-13 AS=1.344e-13 PD=3.52e-06 PS=1.008e-06 m=1 
MX8332/M3 3 575 X8332/6 3 PE3I L=3e-07 W=1.1e-06 AD=5.39943e-13 AS=5.28e-13 PD=2.20442e-06 PS=3.16e-06 m=1 
MX8332/M4 up_switches<25> X8332/6 3 3 PE3I L=3.00472e-07 W=1.45971e-06 AD=2.751e-13 AS=7.16507e-13 PD=1.87971e-06 PS=2.92528e-06 m=1 
MX8332/M5 3 X8332/6 up_switches<25> 3 PE3I L=3.00472e-07 W=1.45971e-06 AD=8.6265e-13 AS=2.751e-13 PD=4.56971e-06 PS=1.87971e-06 m=1 
MX8333/M0 1 107 X8333/6 1 NE3I L=3.5e-07 W=6e-07 AD=2.96727e-13 AS=2.88e-13 PD=1.69091e-06 PS=2.16e-06 m=1 
MX8333/M1 130 X8333/6 1 1 NE3I L=3.5e-07 W=7.2e-07 AD=2.016e-13 AS=3.56073e-13 PD=1.512e-06 PS=2.02909e-06 m=1 
MX8333/M2 1 X8333/6 130 1 NE3I L=3.5e-07 W=4.8e-07 AD=4.648e-13 AS=1.344e-13 PD=3.52e-06 PS=1.008e-06 m=1 
MX8333/M3 3 107 X8333/6 3 PE3I L=3e-07 W=1.1e-06 AD=5.39943e-13 AS=5.28e-13 PD=2.20442e-06 PS=3.16e-06 m=1 
MX8333/M4 130 X8333/6 3 3 PE3I L=3.00472e-07 W=1.45971e-06 AD=2.751e-13 AS=7.16507e-13 PD=1.87971e-06 PS=2.92528e-06 m=1 
MX8333/M5 3 X8333/6 130 3 PE3I L=3.00472e-07 W=1.45971e-06 AD=8.6265e-13 AS=2.751e-13 PD=4.56971e-06 PS=1.87971e-06 m=1 
MX8334/M0 1 567 X8334/6 1 NE3I L=3.5e-07 W=6e-07 AD=2.96727e-13 AS=2.88e-13 PD=1.69091e-06 PS=2.16e-06 m=1 
MX8334/M1 up_switches<24> X8334/6 1 1 NE3I L=3.5e-07 W=7.2e-07 AD=2.016e-13 AS=3.56073e-13 PD=1.512e-06 PS=2.02909e-06 m=1 
MX8334/M2 1 X8334/6 up_switches<24> 1 NE3I L=3.5e-07 W=4.8e-07 AD=4.648e-13 AS=1.344e-13 PD=3.52e-06 PS=1.008e-06 m=1 
MX8334/M3 3 567 X8334/6 3 PE3I L=3e-07 W=1.1e-06 AD=5.39943e-13 AS=5.28e-13 PD=2.20442e-06 PS=3.16e-06 m=1 
MX8334/M4 up_switches<24> X8334/6 3 3 PE3I L=3.00472e-07 W=1.45971e-06 AD=2.751e-13 AS=7.16507e-13 PD=1.87971e-06 PS=2.92528e-06 m=1 
MX8334/M5 3 X8334/6 up_switches<24> 3 PE3I L=3.00472e-07 W=1.45971e-06 AD=8.6265e-13 AS=2.751e-13 PD=4.56971e-06 PS=1.87971e-06 m=1 
MX8335/M0 1 clk X8335/6 1 NE3I L=3.5e-07 W=6e-07 AD=2.96727e-13 AS=2.88e-13 PD=1.69091e-06 PS=2.16e-06 m=1 
MX8335/M1 12 X8335/6 1 1 NE3I L=3.5e-07 W=7.2e-07 AD=2.016e-13 AS=3.56073e-13 PD=1.512e-06 PS=2.02909e-06 m=1 
MX8335/M2 1 X8335/6 12 1 NE3I L=3.5e-07 W=4.8e-07 AD=4.648e-13 AS=1.344e-13 PD=3.52e-06 PS=1.008e-06 m=1 
MX8335/M3 3 clk X8335/6 3 PE3I L=3e-07 W=1.1e-06 AD=5.39943e-13 AS=5.28e-13 PD=2.20442e-06 PS=3.16e-06 m=1 
MX8335/M4 12 X8335/6 3 3 PE3I L=3.00472e-07 W=1.45971e-06 AD=2.751e-13 AS=7.16507e-13 PD=1.87971e-06 PS=2.92528e-06 m=1 
MX8335/M5 3 X8335/6 12 3 PE3I L=3.00472e-07 W=1.45971e-06 AD=8.6265e-13 AS=2.751e-13 PD=4.56971e-06 PS=1.87971e-06 m=1 
MX8336/M0 1 578 X8336/6 1 NE3I L=3.5e-07 W=6e-07 AD=2.96727e-13 AS=2.88e-13 PD=1.69091e-06 PS=2.16e-06 m=1 
MX8336/M1 131 X8336/6 1 1 NE3I L=3.5e-07 W=7.2e-07 AD=2.016e-13 AS=3.56073e-13 PD=1.512e-06 PS=2.02909e-06 m=1 
MX8336/M2 1 X8336/6 131 1 NE3I L=3.5e-07 W=4.8e-07 AD=4.648e-13 AS=1.344e-13 PD=3.52e-06 PS=1.008e-06 m=1 
MX8336/M3 3 578 X8336/6 3 PE3I L=3e-07 W=1.1e-06 AD=5.39943e-13 AS=5.28e-13 PD=2.20442e-06 PS=3.16e-06 m=1 
MX8336/M4 131 X8336/6 3 3 PE3I L=3.00472e-07 W=1.45971e-06 AD=2.751e-13 AS=7.16507e-13 PD=1.87971e-06 PS=2.92528e-06 m=1 
MX8336/M5 3 X8336/6 131 3 PE3I L=3.00472e-07 W=1.45971e-06 AD=8.6265e-13 AS=2.751e-13 PD=4.56971e-06 PS=1.87971e-06 m=1 
MX8337/M0 1 904 X8337/6 1 NE3I L=3.5e-07 W=6e-07 AD=2.96727e-13 AS=2.88e-13 PD=1.69091e-06 PS=2.16e-06 m=1 
MX8337/M1 up_switches<23> X8337/6 1 1 NE3I L=3.5e-07 W=7.2e-07 AD=2.016e-13 AS=3.56073e-13 PD=1.512e-06 PS=2.02909e-06 m=1 
MX8337/M2 1 X8337/6 up_switches<23> 1 NE3I L=3.5e-07 W=4.8e-07 AD=4.648e-13 AS=1.344e-13 PD=3.52e-06 PS=1.008e-06 m=1 
MX8337/M3 3 904 X8337/6 3 PE3I L=3e-07 W=1.1e-06 AD=5.39943e-13 AS=5.28e-13 PD=2.20442e-06 PS=3.16e-06 m=1 
MX8337/M4 up_switches<23> X8337/6 3 3 PE3I L=3.00472e-07 W=1.45971e-06 AD=2.751e-13 AS=7.16507e-13 PD=1.87971e-06 PS=2.92528e-06 m=1 
MX8337/M5 3 X8337/6 up_switches<23> 3 PE3I L=3.00472e-07 W=1.45971e-06 AD=8.6265e-13 AS=2.751e-13 PD=4.56971e-06 PS=1.87971e-06 m=1 
MX8338/M0 1 589 X8338/6 1 NE3I L=3.5e-07 W=6e-07 AD=2.96727e-13 AS=2.88e-13 PD=1.69091e-06 PS=2.16e-06 m=1 
MX8338/M1 up_switches<21> X8338/6 1 1 NE3I L=3.5e-07 W=7.2e-07 AD=2.016e-13 AS=3.56073e-13 PD=1.512e-06 PS=2.02909e-06 m=1 
MX8338/M2 1 X8338/6 up_switches<21> 1 NE3I L=3.5e-07 W=4.8e-07 AD=4.648e-13 AS=1.344e-13 PD=3.52e-06 PS=1.008e-06 m=1 
MX8338/M3 3 589 X8338/6 3 PE3I L=3e-07 W=1.1e-06 AD=5.39943e-13 AS=5.28e-13 PD=2.20442e-06 PS=3.16e-06 m=1 
MX8338/M4 up_switches<21> X8338/6 3 3 PE3I L=3.00472e-07 W=1.45971e-06 AD=2.751e-13 AS=7.16507e-13 PD=1.87971e-06 PS=2.92528e-06 m=1 
MX8338/M5 3 X8338/6 up_switches<21> 3 PE3I L=3.00472e-07 W=1.45971e-06 AD=8.6265e-13 AS=2.751e-13 PD=4.56971e-06 PS=1.87971e-06 m=1 
MX8339/M0 1 612 X8339/6 1 NE3I L=3.5e-07 W=6e-07 AD=2.96727e-13 AS=2.88e-13 PD=1.69091e-06 PS=2.16e-06 m=1 
MX8339/M1 up_switches<20> X8339/6 1 1 NE3I L=3.5e-07 W=7.2e-07 AD=2.016e-13 AS=3.56073e-13 PD=1.512e-06 PS=2.02909e-06 m=1 
MX8339/M2 1 X8339/6 up_switches<20> 1 NE3I L=3.5e-07 W=4.8e-07 AD=4.648e-13 AS=1.344e-13 PD=3.52e-06 PS=1.008e-06 m=1 
MX8339/M3 3 612 X8339/6 3 PE3I L=3e-07 W=1.1e-06 AD=5.39943e-13 AS=5.28e-13 PD=2.20442e-06 PS=3.16e-06 m=1 
MX8339/M4 up_switches<20> X8339/6 3 3 PE3I L=3.00472e-07 W=1.45971e-06 AD=2.751e-13 AS=7.16507e-13 PD=1.87971e-06 PS=2.92528e-06 m=1 
MX8339/M5 3 X8339/6 up_switches<20> 3 PE3I L=3.00472e-07 W=1.45971e-06 AD=8.6265e-13 AS=2.751e-13 PD=4.56971e-06 PS=1.87971e-06 m=1 
MX8340/M0 1 602 X8340/6 1 NE3I L=3.5e-07 W=6e-07 AD=2.96727e-13 AS=2.88e-13 PD=1.69091e-06 PS=2.16e-06 m=1 
MX8340/M1 up_switches<19> X8340/6 1 1 NE3I L=3.5e-07 W=7.2e-07 AD=2.016e-13 AS=3.56073e-13 PD=1.512e-06 PS=2.02909e-06 m=1 
MX8340/M2 1 X8340/6 up_switches<19> 1 NE3I L=3.5e-07 W=4.8e-07 AD=4.648e-13 AS=1.344e-13 PD=3.52e-06 PS=1.008e-06 m=1 
MX8340/M3 3 602 X8340/6 3 PE3I L=3e-07 W=1.1e-06 AD=5.39943e-13 AS=5.28e-13 PD=2.20442e-06 PS=3.16e-06 m=1 
MX8340/M4 up_switches<19> X8340/6 3 3 PE3I L=3.00472e-07 W=1.45971e-06 AD=2.751e-13 AS=7.16507e-13 PD=1.87971e-06 PS=2.92528e-06 m=1 
MX8340/M5 3 X8340/6 up_switches<19> 3 PE3I L=3.00472e-07 W=1.45971e-06 AD=8.6265e-13 AS=2.751e-13 PD=4.56971e-06 PS=1.87971e-06 m=1 
MX8341/M0 1 1263 X8341/6 1 NE3I L=3.5e-07 W=6e-07 AD=2.96727e-13 AS=2.88e-13 PD=1.69091e-06 PS=2.16e-06 m=1 
MX8341/M1 643 X8341/6 1 1 NE3I L=3.5e-07 W=7.2e-07 AD=2.016e-13 AS=3.56073e-13 PD=1.512e-06 PS=2.02909e-06 m=1 
MX8341/M2 1 X8341/6 643 1 NE3I L=3.5e-07 W=4.8e-07 AD=4.648e-13 AS=1.344e-13 PD=3.52e-06 PS=1.008e-06 m=1 
MX8341/M3 3 1263 X8341/6 3 PE3I L=3e-07 W=1.1e-06 AD=5.39943e-13 AS=5.28e-13 PD=2.20442e-06 PS=3.16e-06 m=1 
MX8341/M4 643 X8341/6 3 3 PE3I L=3.00472e-07 W=1.45971e-06 AD=2.751e-13 AS=7.16507e-13 PD=1.87971e-06 PS=2.92528e-06 m=1 
MX8341/M5 3 X8341/6 643 3 PE3I L=3.00472e-07 W=1.45971e-06 AD=8.6265e-13 AS=2.751e-13 PD=4.56971e-06 PS=1.87971e-06 m=1 
MX8342/M0 1 131 X8342/6 1 NE3I L=3.5e-07 W=6e-07 AD=2.96727e-13 AS=2.88e-13 PD=1.69091e-06 PS=2.16e-06 m=1 
MX8342/M1 154 X8342/6 1 1 NE3I L=3.5e-07 W=7.2e-07 AD=2.016e-13 AS=3.56073e-13 PD=1.512e-06 PS=2.02909e-06 m=1 
MX8342/M2 1 X8342/6 154 1 NE3I L=3.5e-07 W=4.8e-07 AD=4.648e-13 AS=1.344e-13 PD=3.52e-06 PS=1.008e-06 m=1 
MX8342/M3 3 131 X8342/6 3 PE3I L=3e-07 W=1.1e-06 AD=5.39943e-13 AS=5.28e-13 PD=2.20442e-06 PS=3.16e-06 m=1 
MX8342/M4 154 X8342/6 3 3 PE3I L=3.00472e-07 W=1.45971e-06 AD=2.751e-13 AS=7.16507e-13 PD=1.87971e-06 PS=2.92528e-06 m=1 
MX8342/M5 3 X8342/6 154 3 PE3I L=3.00472e-07 W=1.45971e-06 AD=8.6265e-13 AS=2.751e-13 PD=4.56971e-06 PS=1.87971e-06 m=1 
MX8343/M0 X8343/7 668 X8343/8 1 NE3I L=3.5e-07 W=5.6e-07 AD=7e-14 AS=2.688e-13 PD=8.1e-07 PS=2.08e-06 m=1 
MX8343/M1 1 1010 X8343/7 1 NE3I L=3.5e-07 W=5.6e-07 AD=2.57137e-13 AS=7e-14 PD=1.43669e-06 PS=8.1e-07 m=1 
MX8343/M2 1008 X8343/8 1 1 NE3I L=3.5e-07 W=8.9e-07 AD=4.272e-13 AS=4.08663e-13 PD=2.74e-06 PS=2.28331e-06 m=1 
MX8343/M3 X8343/8 668 3 3 PE3I L=3e-07 W=7e-07 AD=1.89e-13 AS=7.276e-13 PD=1.24e-06 PS=4.56e-06 m=1 
MX8343/M4 3 1010 X8343/8 3 PE3I L=3e-07 W=7e-07 AD=3.64829e-13 AS=1.89e-13 PD=1.6455e-06 PS=1.24e-06 m=1 
MX8343/M5 1008 X8343/8 3 3 PE3I L=3e-07 W=1.41e-06 AD=6.768e-13 AS=7.34871e-13 PD=3.78e-06 PS=3.3145e-06 m=1 
MX8344/M0 X8344/7 668 X8344/8 1 NE3I L=3.5e-07 W=5.6e-07 AD=7e-14 AS=2.688e-13 PD=8.1e-07 PS=2.08e-06 m=1 
MX8344/M1 1 1215 X8344/7 1 NE3I L=3.5e-07 W=5.6e-07 AD=2.57137e-13 AS=7e-14 PD=1.43669e-06 PS=8.1e-07 m=1 
MX8344/M2 1381 X8344/8 1 1 NE3I L=3.5e-07 W=8.9e-07 AD=4.272e-13 AS=4.08663e-13 PD=2.74e-06 PS=2.28331e-06 m=1 
MX8344/M3 X8344/8 668 3 3 PE3I L=3e-07 W=7e-07 AD=1.89e-13 AS=7.276e-13 PD=1.24e-06 PS=4.56e-06 m=1 
MX8344/M4 3 1215 X8344/8 3 PE3I L=3e-07 W=7e-07 AD=3.64829e-13 AS=1.89e-13 PD=1.6455e-06 PS=1.24e-06 m=1 
MX8344/M5 1381 X8344/8 3 3 PE3I L=3e-07 W=1.41e-06 AD=6.768e-13 AS=7.34871e-13 PD=3.78e-06 PS=3.3145e-06 m=1 
MX8345/M0 X8345/7 668 X8345/8 1 NE3I L=3.5e-07 W=5.6e-07 AD=7e-14 AS=2.688e-13 PD=8.1e-07 PS=2.08e-06 m=1 
MX8345/M1 1 253 X8345/7 1 NE3I L=3.5e-07 W=5.6e-07 AD=2.57137e-13 AS=7e-14 PD=1.43669e-06 PS=8.1e-07 m=1 
MX8345/M2 1016 X8345/8 1 1 NE3I L=3.5e-07 W=8.9e-07 AD=4.272e-13 AS=4.08663e-13 PD=2.74e-06 PS=2.28331e-06 m=1 
MX8345/M3 X8345/8 668 3 3 PE3I L=3e-07 W=7e-07 AD=1.89e-13 AS=7.276e-13 PD=1.24e-06 PS=4.56e-06 m=1 
MX8345/M4 3 253 X8345/8 3 PE3I L=3e-07 W=7e-07 AD=3.64829e-13 AS=1.89e-13 PD=1.6455e-06 PS=1.24e-06 m=1 
MX8345/M5 1016 X8345/8 3 3 PE3I L=3e-07 W=1.41e-06 AD=6.768e-13 AS=7.34871e-13 PD=3.78e-06 PS=3.3145e-06 m=1 
MX8346/M0 X8346/7 668 X8346/8 1 NE3I L=3.5e-07 W=5.6e-07 AD=7e-14 AS=2.688e-13 PD=8.1e-07 PS=2.08e-06 m=1 
MX8346/M1 1 257 X8346/7 1 NE3I L=3.5e-07 W=5.6e-07 AD=2.57137e-13 AS=7e-14 PD=1.43669e-06 PS=8.1e-07 m=1 
MX8346/M2 1029 X8346/8 1 1 NE3I L=3.5e-07 W=8.9e-07 AD=4.272e-13 AS=4.08663e-13 PD=2.74e-06 PS=2.28331e-06 m=1 
MX8346/M3 X8346/8 668 3 3 PE3I L=3e-07 W=7e-07 AD=1.89e-13 AS=7.276e-13 PD=1.24e-06 PS=4.56e-06 m=1 
MX8346/M4 3 257 X8346/8 3 PE3I L=3e-07 W=7e-07 AD=3.64829e-13 AS=1.89e-13 PD=1.6455e-06 PS=1.24e-06 m=1 
MX8346/M5 1029 X8346/8 3 3 PE3I L=3e-07 W=1.41e-06 AD=6.768e-13 AS=7.34871e-13 PD=3.78e-06 PS=3.3145e-06 m=1 
MX8347/M0 X8347/7 668 X8347/8 1 NE3I L=3.5e-07 W=5.6e-07 AD=7e-14 AS=2.688e-13 PD=8.1e-07 PS=2.08e-06 m=1 
MX8347/M1 1 276 X8347/7 1 NE3I L=3.5e-07 W=5.6e-07 AD=2.57137e-13 AS=7e-14 PD=1.43669e-06 PS=8.1e-07 m=1 
MX8347/M2 1033 X8347/8 1 1 NE3I L=3.5e-07 W=8.9e-07 AD=4.272e-13 AS=4.08663e-13 PD=2.74e-06 PS=2.28331e-06 m=1 
MX8347/M3 X8347/8 668 3 3 PE3I L=3e-07 W=7e-07 AD=1.89e-13 AS=7.276e-13 PD=1.24e-06 PS=4.56e-06 m=1 
MX8347/M4 3 276 X8347/8 3 PE3I L=3e-07 W=7e-07 AD=3.64829e-13 AS=1.89e-13 PD=1.6455e-06 PS=1.24e-06 m=1 
MX8347/M5 1033 X8347/8 3 3 PE3I L=3e-07 W=1.41e-06 AD=6.768e-13 AS=7.34871e-13 PD=3.78e-06 PS=3.3145e-06 m=1 
MX8348/M0 X8348/7 668 X8348/8 1 NE3I L=3.5e-07 W=5.6e-07 AD=7e-14 AS=2.688e-13 PD=8.1e-07 PS=2.08e-06 m=1 
MX8348/M1 1 822 X8348/7 1 NE3I L=3.5e-07 W=5.6e-07 AD=2.57137e-13 AS=7e-14 PD=1.43669e-06 PS=8.1e-07 m=1 
MX8348/M2 1043 X8348/8 1 1 NE3I L=3.5e-07 W=8.9e-07 AD=4.272e-13 AS=4.08663e-13 PD=2.74e-06 PS=2.28331e-06 m=1 
MX8348/M3 X8348/8 668 3 3 PE3I L=3e-07 W=7e-07 AD=1.89e-13 AS=7.276e-13 PD=1.24e-06 PS=4.56e-06 m=1 
MX8348/M4 3 822 X8348/8 3 PE3I L=3e-07 W=7e-07 AD=3.64829e-13 AS=1.89e-13 PD=1.6455e-06 PS=1.24e-06 m=1 
MX8348/M5 1043 X8348/8 3 3 PE3I L=3e-07 W=1.41e-06 AD=6.768e-13 AS=7.34871e-13 PD=3.78e-06 PS=3.3145e-06 m=1 
MX8349/M0 X8349/8 242 X8349/9 1 NE3I L=3.5e-07 W=4.2e-07 AD=5.25e-14 AS=2.016e-13 PD=6.7e-07 PS=1.8e-06 m=1 
MX8349/M1 1 208 X8349/8 1 NE3I L=3.5e-07 W=4.2e-07 AD=1.134e-13 AS=5.25e-14 PD=9.6e-07 PS=6.7e-07 m=1 
MX8349/M2 X8349/7 242 1 1 NE3I L=3.5e-07 W=4.2e-07 AD=1.134e-13 AS=1.134e-13 PD=9.6e-07 PS=9.6e-07 m=1 
MX8349/M3 1 208 X8349/7 1 NE3I L=3.5e-07 W=4.2e-07 AD=3.698e-13 AS=1.134e-13 PD=3.22e-06 PS=9.6e-07 m=1 
MX8349/M4 790 X8349/9 X8349/7 1 NE3I L=3.5e-07 W=4.2e-07 AD=2.016e-13 AS=2.058e-13 PD=1.8e-06 PS=1.82e-06 m=1 
MX8349/M5 X8349/9 242 3 3 PE3I L=3e-07 W=9e-07 AD=3.195e-13 AS=8.517e-13 PD=1.61e-06 PS=4.61e-06 m=1 
MX8349/M6 3 208 X8349/9 3 PE3I L=3e-07 W=9e-07 AD=4.30855e-13 AS=3.195e-13 PD=1.83273e-06 PS=1.61e-06 m=1 
MX8349/M7 X8349/10 242 3 3 PE3I L=3e-07 W=1.3e-06 AD=1.95e-13 AS=6.22345e-13 PD=1.6e-06 PS=2.64727e-06 m=1 
MX8349/M8 790 208 X8349/10 3 PE3I L=3e-07 W=1.3e-06 AD=6.21324e-13 AS=1.95e-13 PD=2.52941e-06 PS=1.6e-06 m=1 
MX8349/M9 3 X8349/9 790 3 PE3I L=3e-07 W=9.1e-07 AD=8.0675e-13 AS=4.34926e-13 PD=4.39e-06 PS=1.77059e-06 m=1 
MX8350/M0 X8350/8 265 X8350/9 1 NE3I L=3.5e-07 W=4.2e-07 AD=5.25e-14 AS=2.016e-13 PD=6.7e-07 PS=1.8e-06 m=1 
MX8350/M1 1 1031 X8350/8 1 NE3I L=3.5e-07 W=4.2e-07 AD=1.134e-13 AS=5.25e-14 PD=9.6e-07 PS=6.7e-07 m=1 
MX8350/M2 X8350/7 265 1 1 NE3I L=3.5e-07 W=4.2e-07 AD=1.134e-13 AS=1.134e-13 PD=9.6e-07 PS=9.6e-07 m=1 
MX8350/M3 1 1031 X8350/7 1 NE3I L=3.5e-07 W=4.2e-07 AD=3.698e-13 AS=1.134e-13 PD=3.22e-06 PS=9.6e-07 m=1 
MX8350/M4 1028 X8350/9 X8350/7 1 NE3I L=3.5e-07 W=4.2e-07 AD=2.016e-13 AS=2.058e-13 PD=1.8e-06 PS=1.82e-06 m=1 
MX8350/M5 X8350/9 265 3 3 PE3I L=3e-07 W=9e-07 AD=3.195e-13 AS=8.517e-13 PD=1.61e-06 PS=4.61e-06 m=1 
MX8350/M6 3 1031 X8350/9 3 PE3I L=3e-07 W=9e-07 AD=4.30855e-13 AS=3.195e-13 PD=1.83273e-06 PS=1.61e-06 m=1 
MX8350/M7 X8350/10 265 3 3 PE3I L=3e-07 W=1.3e-06 AD=1.95e-13 AS=6.22345e-13 PD=1.6e-06 PS=2.64727e-06 m=1 
MX8350/M8 1028 1031 X8350/10 3 PE3I L=3e-07 W=1.3e-06 AD=6.21324e-13 AS=1.95e-13 PD=2.52941e-06 PS=1.6e-06 m=1 
MX8350/M9 3 X8350/9 1028 3 PE3I L=3e-07 W=9.1e-07 AD=8.0675e-13 AS=4.34926e-13 PD=4.39e-06 PS=1.77059e-06 m=1 
MX8351/M0 X8351/8 274 X8351/9 1 NE3I L=3.5e-07 W=4.2e-07 AD=5.25e-14 AS=2.016e-13 PD=6.7e-07 PS=1.8e-06 m=1 
MX8351/M1 1 282 X8351/8 1 NE3I L=3.5e-07 W=4.2e-07 AD=1.134e-13 AS=5.25e-14 PD=9.6e-07 PS=6.7e-07 m=1 
MX8351/M2 X8351/7 274 1 1 NE3I L=3.5e-07 W=4.2e-07 AD=1.134e-13 AS=1.134e-13 PD=9.6e-07 PS=9.6e-07 m=1 
MX8351/M3 1 282 X8351/7 1 NE3I L=3.5e-07 W=4.2e-07 AD=3.698e-13 AS=1.134e-13 PD=3.22e-06 PS=9.6e-07 m=1 
MX8351/M4 814 X8351/9 X8351/7 1 NE3I L=3.5e-07 W=4.2e-07 AD=2.016e-13 AS=2.058e-13 PD=1.8e-06 PS=1.82e-06 m=1 
MX8351/M5 X8351/9 274 3 3 PE3I L=3e-07 W=9e-07 AD=3.195e-13 AS=8.517e-13 PD=1.61e-06 PS=4.61e-06 m=1 
MX8351/M6 3 282 X8351/9 3 PE3I L=3e-07 W=9e-07 AD=4.30855e-13 AS=3.195e-13 PD=1.83273e-06 PS=1.61e-06 m=1 
MX8351/M7 X8351/10 274 3 3 PE3I L=3e-07 W=1.3e-06 AD=1.95e-13 AS=6.22345e-13 PD=1.6e-06 PS=2.64727e-06 m=1 
MX8351/M8 814 282 X8351/10 3 PE3I L=3e-07 W=1.3e-06 AD=6.21324e-13 AS=1.95e-13 PD=2.52941e-06 PS=1.6e-06 m=1 
MX8351/M9 3 X8351/9 814 3 PE3I L=3e-07 W=9.1e-07 AD=8.0675e-13 AS=4.34926e-13 PD=4.39e-06 PS=1.77059e-06 m=1 
MX8352/M0 X8352/8 965 X8352/9 1 NE3I L=3.5e-07 W=4.2e-07 AD=5.25e-14 AS=2.016e-13 PD=6.7e-07 PS=1.8e-06 m=1 
MX8352/M1 1 474 X8352/8 1 NE3I L=3.5e-07 W=4.2e-07 AD=1.134e-13 AS=5.25e-14 PD=9.6e-07 PS=6.7e-07 m=1 
MX8352/M2 X8352/7 965 1 1 NE3I L=3.5e-07 W=4.2e-07 AD=1.134e-13 AS=1.134e-13 PD=9.6e-07 PS=9.6e-07 m=1 
MX8352/M3 1 474 X8352/7 1 NE3I L=3.5e-07 W=4.2e-07 AD=3.698e-13 AS=1.134e-13 PD=3.22e-06 PS=9.6e-07 m=1 
MX8352/M4 1238 X8352/9 X8352/7 1 NE3I L=3.5e-07 W=4.2e-07 AD=2.016e-13 AS=2.058e-13 PD=1.8e-06 PS=1.82e-06 m=1 
MX8352/M5 X8352/9 965 3 3 PE3I L=3e-07 W=9e-07 AD=3.195e-13 AS=8.517e-13 PD=1.61e-06 PS=4.61e-06 m=1 
MX8352/M6 3 474 X8352/9 3 PE3I L=3e-07 W=9e-07 AD=4.30855e-13 AS=3.195e-13 PD=1.83273e-06 PS=1.61e-06 m=1 
MX8352/M7 X8352/10 965 3 3 PE3I L=3e-07 W=1.3e-06 AD=1.95e-13 AS=6.22345e-13 PD=1.6e-06 PS=2.64727e-06 m=1 
MX8352/M8 1238 474 X8352/10 3 PE3I L=3e-07 W=1.3e-06 AD=6.21324e-13 AS=1.95e-13 PD=2.52941e-06 PS=1.6e-06 m=1 
MX8352/M9 3 X8352/9 1238 3 PE3I L=3e-07 W=9.1e-07 AD=8.0675e-13 AS=4.34926e-13 PD=4.39e-06 PS=1.77059e-06 m=1 
MX8353/M0 X8353/8 1084 X8353/9 1 NE3I L=3.5e-07 W=4.2e-07 AD=5.25e-14 AS=2.016e-13 PD=6.7e-07 PS=1.8e-06 m=1 
MX8353/M1 1 484 X8353/8 1 NE3I L=3.5e-07 W=4.2e-07 AD=1.134e-13 AS=5.25e-14 PD=9.6e-07 PS=6.7e-07 m=1 
MX8353/M2 X8353/7 1084 1 1 NE3I L=3.5e-07 W=4.2e-07 AD=1.134e-13 AS=1.134e-13 PD=9.6e-07 PS=9.6e-07 m=1 
MX8353/M3 1 484 X8353/7 1 NE3I L=3.5e-07 W=4.2e-07 AD=3.698e-13 AS=1.134e-13 PD=3.22e-06 PS=9.6e-07 m=1 
MX8353/M4 1088 X8353/9 X8353/7 1 NE3I L=3.5e-07 W=4.2e-07 AD=2.016e-13 AS=2.058e-13 PD=1.8e-06 PS=1.82e-06 m=1 
MX8353/M5 X8353/9 1084 3 3 PE3I L=3e-07 W=9e-07 AD=3.195e-13 AS=8.517e-13 PD=1.61e-06 PS=4.61e-06 m=1 
MX8353/M6 3 484 X8353/9 3 PE3I L=3e-07 W=9e-07 AD=4.30855e-13 AS=3.195e-13 PD=1.83273e-06 PS=1.61e-06 m=1 
MX8353/M7 X8353/10 1084 3 3 PE3I L=3e-07 W=1.3e-06 AD=1.95e-13 AS=6.22345e-13 PD=1.6e-06 PS=2.64727e-06 m=1 
MX8353/M8 1088 484 X8353/10 3 PE3I L=3e-07 W=1.3e-06 AD=6.21324e-13 AS=1.95e-13 PD=2.52941e-06 PS=1.6e-06 m=1 
MX8353/M9 3 X8353/9 1088 3 PE3I L=3e-07 W=9.1e-07 AD=8.0675e-13 AS=4.34926e-13 PD=4.39e-06 PS=1.77059e-06 m=1 
MX8354/M0 X8354/8 603 X8354/9 1 NE3I L=3.5e-07 W=4.2e-07 AD=5.25e-14 AS=2.016e-13 PD=6.7e-07 PS=1.8e-06 m=1 
MX8354/M1 1 1117 X8354/8 1 NE3I L=3.5e-07 W=4.2e-07 AD=1.134e-13 AS=5.25e-14 PD=9.6e-07 PS=6.7e-07 m=1 
MX8354/M2 X8354/7 603 1 1 NE3I L=3.5e-07 W=4.2e-07 AD=1.134e-13 AS=1.134e-13 PD=9.6e-07 PS=9.6e-07 m=1 
MX8354/M3 1 1117 X8354/7 1 NE3I L=3.5e-07 W=4.2e-07 AD=3.698e-13 AS=1.134e-13 PD=3.22e-06 PS=9.6e-07 m=1 
MX8354/M4 1382 X8354/9 X8354/7 1 NE3I L=3.5e-07 W=4.2e-07 AD=2.016e-13 AS=2.058e-13 PD=1.8e-06 PS=1.82e-06 m=1 
MX8354/M5 X8354/9 603 3 3 PE3I L=3e-07 W=9e-07 AD=3.195e-13 AS=8.517e-13 PD=1.61e-06 PS=4.61e-06 m=1 
MX8354/M6 3 1117 X8354/9 3 PE3I L=3e-07 W=9e-07 AD=4.30855e-13 AS=3.195e-13 PD=1.83273e-06 PS=1.61e-06 m=1 
MX8354/M7 X8354/10 603 3 3 PE3I L=3e-07 W=1.3e-06 AD=1.95e-13 AS=6.22345e-13 PD=1.6e-06 PS=2.64727e-06 m=1 
MX8354/M8 1382 1117 X8354/10 3 PE3I L=3e-07 W=1.3e-06 AD=6.21324e-13 AS=1.95e-13 PD=2.52941e-06 PS=1.6e-06 m=1 
MX8354/M9 3 X8354/9 1382 3 PE3I L=3e-07 W=9.1e-07 AD=8.0675e-13 AS=4.34926e-13 PD=4.39e-06 PS=1.77059e-06 m=1 
MX8355/M0 X8355/8 935 X8355/9 1 NE3I L=3.5e-07 W=4.2e-07 AD=5.25e-14 AS=2.016e-13 PD=6.7e-07 PS=1.8e-06 m=1 
MX8355/M1 1 937 X8355/8 1 NE3I L=3.5e-07 W=4.2e-07 AD=1.134e-13 AS=5.25e-14 PD=9.6e-07 PS=6.7e-07 m=1 
MX8355/M2 X8355/7 935 1 1 NE3I L=3.5e-07 W=4.2e-07 AD=1.134e-13 AS=1.134e-13 PD=9.6e-07 PS=9.6e-07 m=1 
MX8355/M3 1 937 X8355/7 1 NE3I L=3.5e-07 W=4.2e-07 AD=3.698e-13 AS=1.134e-13 PD=3.22e-06 PS=9.6e-07 m=1 
MX8355/M4 934 X8355/9 X8355/7 1 NE3I L=3.5e-07 W=4.2e-07 AD=2.016e-13 AS=2.058e-13 PD=1.8e-06 PS=1.82e-06 m=1 
MX8355/M5 X8355/9 935 3 3 PE3I L=3e-07 W=9e-07 AD=3.195e-13 AS=8.517e-13 PD=1.61e-06 PS=4.61e-06 m=1 
MX8355/M6 3 937 X8355/9 3 PE3I L=3e-07 W=9e-07 AD=4.30855e-13 AS=3.195e-13 PD=1.83273e-06 PS=1.61e-06 m=1 
MX8355/M7 X8355/10 935 3 3 PE3I L=3e-07 W=1.3e-06 AD=1.95e-13 AS=6.22345e-13 PD=1.6e-06 PS=2.64727e-06 m=1 
MX8355/M8 934 937 X8355/10 3 PE3I L=3e-07 W=1.3e-06 AD=6.21324e-13 AS=1.95e-13 PD=2.52941e-06 PS=1.6e-06 m=1 
MX8355/M9 3 X8355/9 934 3 PE3I L=3e-07 W=9.1e-07 AD=8.0675e-13 AS=4.34926e-13 PD=4.39e-06 PS=1.77059e-06 m=1 
MX8356/M0 1 958 X8356/8 1 NE3I L=3.5e-07 W=4.2e-07 AD=2.44754e-13 AS=2.016e-13 PD=1.25038e-06 PS=1.8e-06 m=1 
MX8356/M1 X8356/7 X8356/8 1 1 NE3I L=3.5e-07 W=8.9e-07 AD=1.1125e-13 AS=5.18646e-13 PD=1.14e-06 PS=2.64962e-06 m=1 
MX8356/M2 1383 1297 X8356/7 1 NE3I L=3.5e-07 W=8.9e-07 AD=4.272e-13 AS=1.1125e-13 PD=2.74e-06 PS=1.14e-06 m=1 
MX8356/M3 3 958 X8356/8 3 PE3I L=3e-07 W=7e-07 AD=6.84341e-13 AS=3.36e-13 PD=3.08e-06 PS=2.36e-06 m=1 
MX8356/M4 1383 X8356/8 3 3 PE3I L=3e-07 W=1e-06 AD=2.7e-13 AS=9.7763e-13 PD=1.54e-06 PS=4.4e-06 m=1 
MX8356/M5 3 1297 1383 3 PE3I L=3e-07 W=1e-06 AD=9.7763e-13 AS=2.7e-13 PD=4.4e-06 PS=1.54e-06 m=1 
MX8357/M0 1 1003 X8357/8 1 NE3I L=3.5e-07 W=4.2e-07 AD=2.44754e-13 AS=2.016e-13 PD=1.25038e-06 PS=1.8e-06 m=1 
MX8357/M1 X8357/7 X8357/8 1 1 NE3I L=3.5e-07 W=8.9e-07 AD=1.1125e-13 AS=5.18646e-13 PD=1.14e-06 PS=2.64962e-06 m=1 
MX8357/M2 1005 221 X8357/7 1 NE3I L=3.5e-07 W=8.9e-07 AD=4.272e-13 AS=1.1125e-13 PD=2.74e-06 PS=1.14e-06 m=1 
MX8357/M3 3 1003 X8357/8 3 PE3I L=3e-07 W=7e-07 AD=6.84341e-13 AS=3.36e-13 PD=3.08e-06 PS=2.36e-06 m=1 
MX8357/M4 1005 X8357/8 3 3 PE3I L=3e-07 W=1e-06 AD=2.7e-13 AS=9.7763e-13 PD=1.54e-06 PS=4.4e-06 m=1 
MX8357/M5 3 221 1005 3 PE3I L=3e-07 W=1e-06 AD=9.7763e-13 AS=2.7e-13 PD=4.4e-06 PS=1.54e-06 m=1 
MX8358/M0 1 228 X8358/8 1 NE3I L=3.5e-07 W=4.2e-07 AD=2.44754e-13 AS=2.016e-13 PD=1.25038e-06 PS=1.8e-06 m=1 
MX8358/M1 X8358/7 X8358/8 1 1 NE3I L=3.5e-07 W=8.9e-07 AD=1.1125e-13 AS=5.18646e-13 PD=1.14e-06 PS=2.64962e-06 m=1 
MX8358/M2 221 794 X8358/7 1 NE3I L=3.5e-07 W=8.9e-07 AD=4.272e-13 AS=1.1125e-13 PD=2.74e-06 PS=1.14e-06 m=1 
MX8358/M3 3 228 X8358/8 3 PE3I L=3e-07 W=7e-07 AD=6.84341e-13 AS=3.36e-13 PD=3.08e-06 PS=2.36e-06 m=1 
MX8358/M4 221 X8358/8 3 3 PE3I L=3e-07 W=1e-06 AD=2.7e-13 AS=9.7763e-13 PD=1.54e-06 PS=4.4e-06 m=1 
MX8358/M5 3 794 221 3 PE3I L=3e-07 W=1e-06 AD=9.7763e-13 AS=2.7e-13 PD=4.4e-06 PS=1.54e-06 m=1 
MX8359/M0 1 227 X8359/8 1 NE3I L=3.5e-07 W=4.2e-07 AD=2.44754e-13 AS=2.016e-13 PD=1.25038e-06 PS=1.8e-06 m=1 
MX8359/M1 X8359/7 X8359/8 1 1 NE3I L=3.5e-07 W=8.9e-07 AD=1.1125e-13 AS=5.18646e-13 PD=1.14e-06 PS=2.64962e-06 m=1 
MX8359/M2 22 278 X8359/7 1 NE3I L=3.5e-07 W=8.9e-07 AD=4.272e-13 AS=1.1125e-13 PD=2.74e-06 PS=1.14e-06 m=1 
MX8359/M3 3 227 X8359/8 3 PE3I L=3e-07 W=7e-07 AD=6.84341e-13 AS=3.36e-13 PD=3.08e-06 PS=2.36e-06 m=1 
MX8359/M4 22 X8359/8 3 3 PE3I L=3e-07 W=1e-06 AD=2.7e-13 AS=9.7763e-13 PD=1.54e-06 PS=4.4e-06 m=1 
MX8359/M5 3 278 22 3 PE3I L=3e-07 W=1e-06 AD=9.7763e-13 AS=2.7e-13 PD=4.4e-06 PS=1.54e-06 m=1 
MX8360/M0 1 794 X8360/8 1 NE3I L=3.5e-07 W=4.2e-07 AD=2.44754e-13 AS=2.016e-13 PD=1.25038e-06 PS=1.8e-06 m=1 
MX8360/M1 X8360/7 X8360/8 1 1 NE3I L=3.5e-07 W=8.9e-07 AD=1.1125e-13 AS=5.18646e-13 PD=1.14e-06 PS=2.64962e-06 m=1 
MX8360/M2 212 228 X8360/7 1 NE3I L=3.5e-07 W=8.9e-07 AD=4.272e-13 AS=1.1125e-13 PD=2.74e-06 PS=1.14e-06 m=1 
MX8360/M3 3 794 X8360/8 3 PE3I L=3e-07 W=7e-07 AD=6.84341e-13 AS=3.36e-13 PD=3.08e-06 PS=2.36e-06 m=1 
MX8360/M4 212 X8360/8 3 3 PE3I L=3e-07 W=1e-06 AD=2.7e-13 AS=9.7763e-13 PD=1.54e-06 PS=4.4e-06 m=1 
MX8360/M5 3 228 212 3 PE3I L=3e-07 W=1e-06 AD=9.7763e-13 AS=2.7e-13 PD=4.4e-06 PS=1.54e-06 m=1 