** Layout Netlist, pvs precompare
** 

.subckt aska_dig DAC<0> DAC<1> DAC<2> DAC<3> DAC<4> DAC<5> IC_addr<0> IC_addr<1> SPI_CS SPI_Clk SPI_MOSI clk down_switches<0> down_switches<10> down_switches<11> down_switches<12> down_switches<13> down_switches<14> down_switches<15> down_switches<16> 
+ down_switches<17> down_switches<18> down_switches<19> down_switches<1> down_switches<20> down_switches<21> down_switches<22> down_switches<23> down_switches<24> down_switches<25> down_switches<26> down_switches<27> down_switches<28> down_switches<29> down_switches<2> down_switches<30> down_switches<31> down_switches<3> down_switches<4> down_switches<5> 
+ down_switches<6> down_switches<7> down_switches<8> down_switches<9> enable porborn pulse_active reset_l up_switches<0> up_switches<10> up_switches<11> up_switches<12> up_switches<13> up_switches<14> up_switches<15> up_switches<16> up_switches<17> up_switches<18> up_switches<19> up_switches<1> 
+ up_switches<20> up_switches<21> up_switches<22> up_switches<23> up_switches<24> up_switches<25> up_switches<26> up_switches<27> up_switches<28> up_switches<29> up_switches<2> up_switches<30> up_switches<31> up_switches<3> up_switches<4> up_switches<5> up_switches<6> up_switches<7> up_switches<8> up_switches<9> 
MX8325/M0 X8325/8 80 X8325/9 1362 NE3I L=3.5e-07 W=4.2e-07 AD=5.25e-14 AS=2.016e-13 PD=6.7e-07 PS=1.8e-06 m=1 
MX8325/M1 1362 1155 X8325/8 1362 NE3I L=3.5e-07 W=4.2e-07 AD=1.134e-13 AS=5.25e-14 PD=9.6e-07 PS=6.7e-07 m=1 
MX8325/M2 X8325/7 80 1362 1362 NE3I L=3.5e-07 W=4.2e-07 AD=1.134e-13 AS=1.134e-13 PD=9.6e-07 PS=9.6e-07 m=1 
MX8325/M3 1362 1155 X8325/7 1362 NE3I L=3.5e-07 W=4.2e-07 AD=3.698e-13 AS=1.134e-13 PD=3.22e-06 PS=9.6e-07 m=1 
MX8325/M4 88 X8325/9 X8325/7 1362 NE3I L=3.5e-07 W=4.2e-07 AD=2.016e-13 AS=2.058e-13 PD=1.8e-06 PS=1.82e-06 m=1 
MX8325/M5 X8325/9 80 1364 1364 PE3I L=3e-07 W=9e-07 AD=3.195e-13 AS=8.517e-13 PD=1.61e-06 PS=4.61e-06 m=1 
MX8325/M6 1364 1155 X8325/9 1364 PE3I L=3e-07 W=9e-07 AD=4.30855e-13 AS=3.195e-13 PD=1.83273e-06 PS=1.61e-06 m=1 
MX8325/M7 X8325/10 80 1364 1364 PE3I L=3e-07 W=1.3e-06 AD=1.95e-13 AS=6.22345e-13 PD=1.6e-06 PS=2.64727e-06 m=1 
MX8325/M8 88 1155 X8325/10 1364 PE3I L=3e-07 W=1.3e-06 AD=6.21324e-13 AS=1.95e-13 PD=2.52941e-06 PS=1.6e-06 m=1 
MX8325/M9 1364 X8325/9 88 1364 PE3I L=3e-07 W=9.1e-07 AD=8.0675e-13 AS=4.34926e-13 PD=4.39e-06 PS=1.77059e-06 m=1 
MX8326/M0 X8326/8 91 X8326/9 1362 NE3I L=3.5e-07 W=4.2e-07 AD=5.25e-14 AS=2.016e-13 PD=6.7e-07 PS=1.8e-06 m=1 
MX8326/M1 1362 652 X8326/8 1362 NE3I L=3.5e-07 W=4.2e-07 AD=1.134e-13 AS=5.25e-14 PD=9.6e-07 PS=6.7e-07 m=1 
MX8326/M2 X8326/7 91 1362 1362 NE3I L=3.5e-07 W=4.2e-07 AD=1.134e-13 AS=1.134e-13 PD=9.6e-07 PS=9.6e-07 m=1 
MX8326/M3 1362 652 X8326/7 1362 NE3I L=3.5e-07 W=4.2e-07 AD=3.698e-13 AS=1.134e-13 PD=3.22e-06 PS=9.6e-07 m=1 
MX8326/M4 701 X8326/9 X8326/7 1362 NE3I L=3.5e-07 W=4.2e-07 AD=2.016e-13 AS=2.058e-13 PD=1.8e-06 PS=1.82e-06 m=1 
MX8326/M5 X8326/9 91 1364 1364 PE3I L=3e-07 W=9e-07 AD=3.195e-13 AS=8.517e-13 PD=1.61e-06 PS=4.61e-06 m=1 
MX8326/M6 1364 652 X8326/9 1364 PE3I L=3e-07 W=9e-07 AD=4.30855e-13 AS=3.195e-13 PD=1.83273e-06 PS=1.61e-06 m=1 
MX8326/M7 X8326/10 91 1364 1364 PE3I L=3e-07 W=1.3e-06 AD=1.95e-13 AS=6.22345e-13 PD=1.6e-06 PS=2.64727e-06 m=1 
MX8326/M8 701 652 X8326/10 1364 PE3I L=3e-07 W=1.3e-06 AD=6.21324e-13 AS=1.95e-13 PD=2.52941e-06 PS=1.6e-06 m=1 
MX8326/M9 1364 X8326/9 701 1364 PE3I L=3e-07 W=9.1e-07 AD=8.0675e-13 AS=4.34926e-13 PD=4.39e-06 PS=1.77059e-06 m=1 
MX8327/M0 X8327/8 498 X8327/9 1362 NE3I L=3.5e-07 W=4.2e-07 AD=5.25e-14 AS=2.016e-13 PD=6.7e-07 PS=1.8e-06 m=1 
MX8327/M1 1362 489 X8327/8 1362 NE3I L=3.5e-07 W=4.2e-07 AD=1.134e-13 AS=5.25e-14 PD=9.6e-07 PS=6.7e-07 m=1 
MX8327/M2 X8327/7 498 1362 1362 NE3I L=3.5e-07 W=4.2e-07 AD=1.134e-13 AS=1.134e-13 PD=9.6e-07 PS=9.6e-07 m=1 
MX8327/M3 1362 489 X8327/7 1362 NE3I L=3.5e-07 W=4.2e-07 AD=3.698e-13 AS=1.134e-13 PD=3.22e-06 PS=9.6e-07 m=1 
MX8327/M4 874 X8327/9 X8327/7 1362 NE3I L=3.5e-07 W=4.2e-07 AD=2.016e-13 AS=2.058e-13 PD=1.8e-06 PS=1.82e-06 m=1 
MX8327/M5 X8327/9 498 1364 1364 PE3I L=3e-07 W=9e-07 AD=3.195e-13 AS=8.517e-13 PD=1.61e-06 PS=4.61e-06 m=1 
MX8327/M6 1364 489 X8327/9 1364 PE3I L=3e-07 W=9e-07 AD=4.30855e-13 AS=3.195e-13 PD=1.83273e-06 PS=1.61e-06 m=1 
MX8327/M7 X8327/10 498 1364 1364 PE3I L=3e-07 W=1.3e-06 AD=1.95e-13 AS=6.22345e-13 PD=1.6e-06 PS=2.64727e-06 m=1 
MX8327/M8 874 489 X8327/10 1364 PE3I L=3e-07 W=1.3e-06 AD=6.21324e-13 AS=1.95e-13 PD=2.52941e-06 PS=1.6e-06 m=1 
MX8327/M9 1364 X8327/9 874 1364 PE3I L=3e-07 W=9.1e-07 AD=8.0675e-13 AS=4.34926e-13 PD=4.39e-06 PS=1.77059e-06 m=1 
MX8328/M0 559 1117 1362 1362 NE3I L=3.4986e-07 W=8.92071e-07 AD=2.37813e-13 AS=4.30337e-13 PD=1.42707e-06 PS=2.76707e-06 m=1 
MX8328/M1 1362 1301 559 1362 NE3I L=3.4986e-07 W=8.92071e-07 AD=2.40287e-13 AS=2.37813e-13 PD=1.44207e-06 PS=1.42707e-06 m=1 
MX8328/M2 559 565 1362 1362 NE3I L=3.4986e-07 W=8.92071e-07 AD=4.29162e-13 AS=2.40287e-13 PD=2.74707e-06 PS=1.44207e-06 m=1 
MX8328/M3 X8328/9 1117 1364 1364 PE3I L=3e-07 W=1.41e-06 AD=2.1855e-13 AS=1.3994e-12 PD=1.72e-06 PS=5.15e-06 m=1 
MX8328/M4 X8328/8 1301 X8328/9 1364 PE3I L=3e-07 W=1.41e-06 AD=2.1855e-13 AS=2.1855e-13 PD=1.72e-06 PS=1.72e-06 m=1 
MX8328/M5 559 565 X8328/8 1364 PE3I L=3e-07 W=1.41e-06 AD=6.768e-13 AS=2.1855e-13 PD=3.78e-06 PS=1.72e-06 m=1 
MX8329/M0 X8329/8 480 1362 1362 NE3I L=3.5e-07 W=8.9e-07 AD=1.1125e-13 AS=7.09e-13 PD=1.14e-06 PS=3.68e-06 m=1 
MX8329/M1 28 1104 X8329/8 1362 NE3I L=3.5e-07 W=8.9e-07 AD=2.403e-13 AS=1.1125e-13 PD=1.43e-06 PS=1.14e-06 m=1 
MX8329/M2 X8329/7 1104 28 1362 NE3I L=3.5e-07 W=8.9e-07 AD=1.1125e-13 AS=2.403e-13 PD=1.14e-06 PS=1.43e-06 m=1 
MX8329/M3 1362 480 X8329/7 1362 NE3I L=3.5e-07 W=8.9e-07 AD=7.09e-13 AS=1.1125e-13 PD=3.68e-06 PS=1.14e-06 m=1 
MX8329/M4 28 480 1364 1364 PE3I L=3e-07 W=1e-06 AD=2.7e-13 AS=8.172e-13 PD=1.54e-06 PS=4.22e-06 m=1 
MX8329/M5 1364 1104 28 1364 PE3I L=3e-07 W=1e-06 AD=8.172e-13 AS=2.7e-13 PD=4.22e-06 PS=1.54e-06 m=1 
MX8329/M6 28 1104 1364 1364 PE3I L=3e-07 W=1e-06 AD=2.7e-13 AS=8.172e-13 PD=1.54e-06 PS=4.22e-06 m=1 
MX8329/M7 1364 480 28 1364 PE3I L=3e-07 W=1e-06 AD=8.172e-13 AS=2.7e-13 PD=4.22e-06 PS=1.54e-06 m=1 
MX8330/M0 X8330/8 1096 1362 1362 NE3I L=3.5e-07 W=4.2e-07 AD=1.134e-13 AS=4.87734e-13 PD=9.6e-07 PS=2.24324e-06 m=1 
MX8330/M1 1362 532 X8330/8 1362 NE3I L=3.5e-07 W=4.2e-07 AD=4.87734e-13 AS=1.134e-13 PD=2.24324e-06 PS=9.6e-07 m=1 
MX8330/M2 1277 X8330/8 1362 1362 NE3I L=3.5e-07 W=8.9e-07 AD=2.403e-13 AS=1.03353e-12 PD=1.43e-06 PS=4.75353e-06 m=1 
MX8330/M3 1362 528 1277 1362 NE3I L=3.5e-07 W=8.9e-07 AD=6.098e-13 AS=2.403e-13 PD=3.52e-06 PS=1.43e-06 m=1 
MX8330/M4 X8330/10 1096 1364 1364 PE3I L=3e-07 W=8.5e-07 AD=1.0625e-13 AS=1.0178e-12 PD=1.1e-06 PS=4.78e-06 m=1 
MX8330/M5 X8330/8 532 X8330/10 1364 PE3I L=3e-07 W=8.5e-07 AD=4.505e-13 AS=1.0625e-13 PD=2.76e-06 PS=1.1e-06 m=1 
MX8330/M6 X8330/9 X8330/8 1277 1364 PE3I L=3e-07 W=1.41e-06 AD=1.7625e-13 AS=6.768e-13 PD=1.66e-06 PS=3.78e-06 m=1 
MX8330/M7 1364 528 X8330/9 1364 PE3I L=3e-07 W=1.41e-06 AD=9.682e-13 AS=1.7625e-13 PD=4.66e-06 PS=1.66e-06 m=1 
MX8331/M0 X8331/8 925 1362 1362 NE3I L=3.5e-07 W=4.2e-07 AD=1.134e-13 AS=4.87734e-13 PD=9.6e-07 PS=2.24324e-06 m=1 
MX8331/M1 1362 607 X8331/8 1362 NE3I L=3.5e-07 W=4.2e-07 AD=4.87734e-13 AS=1.134e-13 PD=2.24324e-06 PS=9.6e-07 m=1 
MX8331/M2 1141 X8331/8 1362 1362 NE3I L=3.5e-07 W=8.9e-07 AD=2.403e-13 AS=1.03353e-12 PD=1.43e-06 PS=4.75353e-06 m=1 
MX8331/M3 1362 1365 1141 1362 NE3I L=3.5e-07 W=8.9e-07 AD=6.098e-13 AS=2.403e-13 PD=3.52e-06 PS=1.43e-06 m=1 
MX8331/M4 X8331/10 925 1364 1364 PE3I L=3e-07 W=8.5e-07 AD=1.0625e-13 AS=1.0178e-12 PD=1.1e-06 PS=4.78e-06 m=1 
MX8331/M5 X8331/8 607 X8331/10 1364 PE3I L=3e-07 W=8.5e-07 AD=4.505e-13 AS=1.0625e-13 PD=2.76e-06 PS=1.1e-06 m=1 
MX8331/M6 X8331/9 X8331/8 1141 1364 PE3I L=3e-07 W=1.41e-06 AD=1.7625e-13 AS=6.768e-13 PD=1.66e-06 PS=3.78e-06 m=1 
MX8331/M7 1364 1365 X8331/9 1364 PE3I L=3e-07 W=1.41e-06 AD=9.682e-13 AS=1.7625e-13 PD=4.66e-06 PS=1.66e-06 m=1 
MX8332/M0 1362 X8332/17 X8332/19 1362 NE3I L=3.5e-07 W=6.6e-07 AD=1.94849e-13 AS=3.168e-13 PD=1.21781e-06 PS=2.28e-06 m=1 
MX8332/M1 X8332/10 533 1362 1362 NE3I L=3.5e-07 W=8.9e-07 AD=3.28952e-13 AS=2.62751e-13 PD=2.36956e-06 PS=1.64219e-06 m=1 
MX8332/M2 X8332/18 X8332/19 X8332/10 1362 NE3I L=3.5e-07 W=4.2e-07 AD=5.25e-14 AS=1.55236e-13 PD=6.7e-07 PS=1.11822e-06 m=1 
MX8332/M3 X8332/17 X8332/9 X8332/18 1362 NE3I L=3.5e-07 W=4.2e-07 AD=1.134e-13 AS=5.25e-14 PD=9.6e-07 PS=6.7e-07 m=1 
MX8332/M4 X8332/16 X8332/15 X8332/17 1362 NE3I L=3.5e-07 W=4.2e-07 AD=5.25e-14 AS=1.134e-13 PD=6.7e-07 PS=9.6e-07 m=1 
MX8332/M5 X8332/10 1111 X8332/16 1362 NE3I L=3.5e-07 W=4.2e-07 AD=2.835e-13 AS=5.25e-14 PD=2.19e-06 PS=6.7e-07 m=1 
MX8332/M6 1362 33 X8332/15 1362 NE3I L=3.5e-07 W=4.2e-07 AD=1.659e-13 AS=2.016e-13 PD=1.21e-06 PS=1.8e-06 m=1 
MX8332/M7 X8332/9 X8332/15 1362 1362 NE3I L=3.5e-07 W=4.2e-07 AD=2.95e-13 AS=1.659e-13 PD=2.23e-06 PS=1.21e-06 m=1 
MX8332/M8 X8332/14 X8332/19 X8332/8 1362 NE3I L=3.5e-07 W=4.2e-07 AD=5.25e-14 AS=2.016e-13 PD=6.7e-07 PS=1.8e-06 m=1 
MX8332/M9 X8332/13 X8332/9 X8332/14 1362 NE3I L=3.5e-07 W=4.2e-07 AD=1.134e-13 AS=5.25e-14 PD=9.6e-07 PS=6.7e-07 m=1 
MX8332/M10 X8332/12 X8332/15 X8332/13 1362 NE3I L=3.5e-07 W=4.2e-07 AD=5.25e-14 AS=1.134e-13 PD=6.7e-07 PS=9.6e-07 m=1 
MX8332/M11 X8332/8 X8332/11 X8332/12 1362 NE3I L=3.5e-07 W=4.2e-07 AD=1.55817e-13 AS=5.25e-14 PD=9.68244e-07 PS=6.7e-07 m=1 
MX8332/M12 1362 533 X8332/8 1362 NE3I L=3.5e-07 W=8.9e-07 AD=5.94987e-13 AS=3.30183e-13 PD=3.35209e-06 PS=2.05176e-06 m=1 
MX8332/M13 X8332/11 X8332/13 1362 1362 NE3I L=3.5e-07 W=6.6e-07 AD=3.168e-13 AS=4.41226e-13 PD=2.28e-06 PS=2.48582e-06 m=1 
MX8332/M14 536 X8332/13 1362 1362 NE3I L=3.5e-07 W=8.9e-07 AD=2.403e-13 AS=5.94987e-13 PD=1.43e-06 PS=3.35209e-06 m=1 
MX8332/M15 1362 X8332/13 536 1362 NE3I L=3.5e-07 W=8.9e-07 AD=4.272e-13 AS=2.403e-13 PD=2.74e-06 PS=1.43e-06 m=1 
MX8332/M16 1364 X8332/17 X8332/19 1364 PE3I L=3e-07 W=1e-06 AD=2.97674e-13 AS=4.8e-13 PD=1.7907e-06 PS=2.96e-06 m=1 
MX8332/M17 X8332/17 533 1364 1364 PE3I L=3e-07 W=7.2e-07 AD=3.136e-13 AS=2.14326e-13 PD=2.4e-06 PS=1.2893e-06 m=1 
MX8332/M18 X8332/23 X8332/19 1364 1364 PE3I L=3e-07 W=4.2e-07 AD=5.25e-14 AS=5.1875e-13 PD=6.7e-07 PS=2.99e-06 m=1 
MX8332/M19 X8332/17 X8332/15 X8332/23 1364 PE3I L=3e-07 W=4.2e-07 AD=1.21617e-13 AS=5.25e-14 PD=9.13043e-07 PS=6.7e-07 m=1 
MX8332/M20 X8332/22 X8332/9 X8332/17 1364 PE3I L=3e-07 W=9.6e-07 AD=1.2e-13 AS=2.77983e-13 PD=1.21e-06 PS=2.08696e-06 m=1 
MX8332/M21 1364 1111 X8332/22 1364 PE3I L=3e-07 W=9.6e-07 AD=5.00229e-13 AS=1.2e-13 PD=2.34286e-06 PS=1.21e-06 m=1 
MX8332/M22 X8332/15 33 1364 1364 PE3I L=3e-07 W=7.2e-07 AD=4.56625e-13 AS=3.75171e-13 PD=2.86e-06 PS=1.75714e-06 m=1 
MX8332/M23 1364 X8332/15 X8332/9 1364 PE3I L=3e-07 W=7.2e-07 AD=3.92547e-13 AS=3.528e-13 PD=1.8586e-06 PS=2.42e-06 m=1 
MX8332/M24 X8332/21 X8332/19 1364 1364 PE3I L=3e-07 W=1e-06 AD=1.25e-13 AS=5.45203e-13 PD=1.25e-06 PS=2.5814e-06 m=1 
MX8332/M25 X8332/13 X8332/15 X8332/21 1364 PE3I L=3e-07 W=1e-06 AD=2.96338e-13 AS=1.25e-13 PD=2.19718e-06 PS=1.25e-06 m=1 
MX8332/M26 X8332/20 X8332/9 X8332/13 1364 PE3I L=3e-07 W=4.2e-07 AD=5.25e-14 AS=1.24462e-13 PD=6.7e-07 PS=9.22817e-07 m=1 
MX8332/M27 1364 X8332/11 X8332/20 1364 PE3I L=3e-07 W=4.2e-07 AD=3.93439e-13 AS=5.25e-14 PD=1.64096e-06 PS=6.7e-07 m=1 
MX8332/M28 1364 533 X8332/13 1364 PE3I L=3e-07 W=7.2e-07 AD=6.74468e-13 AS=2.976e-13 PD=2.81307e-06 PS=2.4e-06 m=1 
MX8332/M29 X8332/11 X8332/13 1364 1364 PE3I L=3e-07 W=1e-06 AD=4.8e-13 AS=9.36761e-13 PD=2.96e-06 PS=3.90704e-06 m=1 
MX8332/M30 536 X8332/13 1364 1364 PE3I L=3e-07 W=1.41e-06 AD=3.807e-13 AS=1.32083e-12 PD=1.95e-06 PS=5.50893e-06 m=1 
MX8332/M31 1364 X8332/13 536 1364 PE3I L=3e-07 W=1.41e-06 AD=8.802e-13 AS=3.807e-13 PD=4.56e-06 PS=1.95e-06 m=1 
MX8333/M0 X8333/6 1366 1362 1362 NE3I L=3.5e-07 W=8.9e-07 AD=2.403e-13 AS=6.098e-13 PD=1.43e-06 PS=3.52e-06 m=1 
MX8333/M1 1362 1366 X8333/6 1362 NE3I L=3.5e-07 W=8.9e-07 AD=3.804e-13 AS=2.403e-13 PD=1.91e-06 PS=1.43e-06 m=1 
MX8333/M2 DAC<0> X8333/6 1362 1362 NE3I L=3.5e-07 W=8.9e-07 AD=2.403e-13 AS=3.804e-13 PD=1.43e-06 PS=1.91e-06 m=1 
MX8333/M3 1362 X8333/6 DAC<0> 1362 NE3I L=3.5e-07 W=8.9e-07 AD=3.494e-13 AS=2.403e-13 PD=1.86e-06 PS=1.43e-06 m=1 
MX8333/M4 DAC<0> X8333/6 1362 1362 NE3I L=3.5e-07 W=8.9e-07 AD=2.403e-13 AS=3.494e-13 PD=1.43e-06 PS=1.86e-06 m=1 
MX8333/M5 1362 X8333/6 DAC<0> 1362 NE3I L=3.5e-07 W=8.9e-07 AD=3.494e-13 AS=2.403e-13 PD=1.86e-06 PS=1.43e-06 m=1 
MX8333/M6 DAC<0> X8333/6 1362 1362 NE3I L=3.5e-07 W=8.9e-07 AD=2.403e-13 AS=3.494e-13 PD=1.43e-06 PS=1.86e-06 m=1 
MX8333/M7 1362 X8333/6 DAC<0> 1362 NE3I L=3.5e-07 W=8.9e-07 AD=8.702e-13 AS=2.403e-13 PD=3.94e-06 PS=1.43e-06 m=1 
MX8333/M8 1364 1366 X8333/6 1364 PE3I L=3.00566e-07 W=1.47006e-06 AD=2.83187e-13 AS=5.51013e-13 PD=1.86506e-06 PS=3.69506e-06 m=1 
MX8333/M9 X8333/6 1366 1364 1364 PE3I L=3.00566e-07 W=1.47006e-06 AD=2.61963e-13 AS=2.83187e-13 PD=1.87506e-06 PS=1.86506e-06 m=1 
MX8333/M10 1364 1366 X8333/6 1364 PE3I L=3.00566e-07 W=1.47006e-06 AD=2.83187e-13 AS=2.61963e-13 PD=1.86506e-06 PS=1.87506e-06 m=1 
MX8333/M11 DAC<0> X8333/6 1364 1364 PE3I L=3.00566e-07 W=1.47006e-06 AD=2.61963e-13 AS=2.83187e-13 PD=1.87506e-06 PS=1.86506e-06 m=1 
MX8333/M12 1364 X8333/6 DAC<0> 1364 PE3I L=3.00566e-07 W=1.47006e-06 AD=2.83187e-13 AS=2.61963e-13 PD=1.86506e-06 PS=1.87506e-06 m=1 
MX8333/M13 DAC<0> X8333/6 1364 1364 PE3I L=3.00566e-07 W=1.47006e-06 AD=2.61963e-13 AS=2.83187e-13 PD=1.87506e-06 PS=1.86506e-06 m=1 
MX8333/M14 1364 X8333/6 DAC<0> 1364 PE3I L=3.00566e-07 W=1.47006e-06 AD=2.83187e-13 AS=2.61963e-13 PD=1.86506e-06 PS=1.87506e-06 m=1 
MX8333/M15 DAC<0> X8333/6 1364 1364 PE3I L=3.00566e-07 W=1.47006e-06 AD=2.61963e-13 AS=2.83187e-13 PD=1.87506e-06 PS=1.86506e-06 m=1 
MX8333/M16 1364 X8333/6 DAC<0> 1364 PE3I L=3.00566e-07 W=1.47006e-06 AD=2.83187e-13 AS=2.61963e-13 PD=1.86506e-06 PS=1.87506e-06 m=1 
MX8333/M17 DAC<0> X8333/6 1364 1364 PE3I L=3.00566e-07 W=1.47006e-06 AD=2.61963e-13 AS=2.83187e-13 PD=1.87506e-06 PS=1.86506e-06 m=1 
MX8333/M18 1364 X8333/6 DAC<0> 1364 PE3I L=3.00566e-07 W=1.47006e-06 AD=5.79287e-13 AS=2.61963e-13 PD=3.69506e-06 PS=1.87506e-06 m=1 
MX8334/M0 X8334/6 1367 1362 1362 NE3I L=3.5e-07 W=8.9e-07 AD=2.403e-13 AS=6.098e-13 PD=1.43e-06 PS=3.52e-06 m=1 
MX8334/M1 1362 1367 X8334/6 1362 NE3I L=3.5e-07 W=8.9e-07 AD=3.804e-13 AS=2.403e-13 PD=1.91e-06 PS=1.43e-06 m=1 
MX8334/M2 DAC<4> X8334/6 1362 1362 NE3I L=3.5e-07 W=8.9e-07 AD=2.403e-13 AS=3.804e-13 PD=1.43e-06 PS=1.91e-06 m=1 
MX8334/M3 1362 X8334/6 DAC<4> 1362 NE3I L=3.5e-07 W=8.9e-07 AD=3.494e-13 AS=2.403e-13 PD=1.86e-06 PS=1.43e-06 m=1 
MX8334/M4 DAC<4> X8334/6 1362 1362 NE3I L=3.5e-07 W=8.9e-07 AD=2.403e-13 AS=3.494e-13 PD=1.43e-06 PS=1.86e-06 m=1 
MX8334/M5 1362 X8334/6 DAC<4> 1362 NE3I L=3.5e-07 W=8.9e-07 AD=3.494e-13 AS=2.403e-13 PD=1.86e-06 PS=1.43e-06 m=1 
MX8334/M6 DAC<4> X8334/6 1362 1362 NE3I L=3.5e-07 W=8.9e-07 AD=2.403e-13 AS=3.494e-13 PD=1.43e-06 PS=1.86e-06 m=1 
MX8334/M7 1362 X8334/6 DAC<4> 1362 NE3I L=3.5e-07 W=8.9e-07 AD=8.702e-13 AS=2.403e-13 PD=3.94e-06 PS=1.43e-06 m=1 
MX8334/M8 1364 1367 X8334/6 1364 PE3I L=3.00566e-07 W=1.47006e-06 AD=2.83187e-13 AS=5.51013e-13 PD=1.86506e-06 PS=3.69506e-06 m=1 
MX8334/M9 X8334/6 1367 1364 1364 PE3I L=3.00566e-07 W=1.47006e-06 AD=2.61963e-13 AS=2.83187e-13 PD=1.87506e-06 PS=1.86506e-06 m=1 
MX8334/M10 1364 1367 X8334/6 1364 PE3I L=3.00566e-07 W=1.47006e-06 AD=2.83187e-13 AS=2.61963e-13 PD=1.86506e-06 PS=1.87506e-06 m=1 
MX8334/M11 DAC<4> X8334/6 1364 1364 PE3I L=3.00566e-07 W=1.47006e-06 AD=2.61963e-13 AS=2.83187e-13 PD=1.87506e-06 PS=1.86506e-06 m=1 
MX8334/M12 1364 X8334/6 DAC<4> 1364 PE3I L=3.00566e-07 W=1.47006e-06 AD=2.83187e-13 AS=2.61963e-13 PD=1.86506e-06 PS=1.87506e-06 m=1 
MX8334/M13 DAC<4> X8334/6 1364 1364 PE3I L=3.00566e-07 W=1.47006e-06 AD=2.61963e-13 AS=2.83187e-13 PD=1.87506e-06 PS=1.86506e-06 m=1 
MX8334/M14 1364 X8334/6 DAC<4> 1364 PE3I L=3.00566e-07 W=1.47006e-06 AD=2.83187e-13 AS=2.61963e-13 PD=1.86506e-06 PS=1.87506e-06 m=1 
MX8334/M15 DAC<4> X8334/6 1364 1364 PE3I L=3.00566e-07 W=1.47006e-06 AD=2.61963e-13 AS=2.83187e-13 PD=1.87506e-06 PS=1.86506e-06 m=1 
MX8334/M16 1364 X8334/6 DAC<4> 1364 PE3I L=3.00566e-07 W=1.47006e-06 AD=2.83187e-13 AS=2.61963e-13 PD=1.86506e-06 PS=1.87506e-06 m=1 
MX8334/M17 DAC<4> X8334/6 1364 1364 PE3I L=3.00566e-07 W=1.47006e-06 AD=2.61963e-13 AS=2.83187e-13 PD=1.87506e-06 PS=1.86506e-06 m=1 
MX8334/M18 1364 X8334/6 DAC<4> 1364 PE3I L=3.00566e-07 W=1.47006e-06 AD=5.79287e-13 AS=2.61963e-13 PD=3.69506e-06 PS=1.87506e-06 m=1 
MX8335/M0 X8335/6 152 1362 1362 NE3I L=3.5e-07 W=8.9e-07 AD=2.403e-13 AS=6.098e-13 PD=1.43e-06 PS=3.52e-06 m=1 
MX8335/M1 1362 152 X8335/6 1362 NE3I L=3.5e-07 W=8.9e-07 AD=3.804e-13 AS=2.403e-13 PD=1.91e-06 PS=1.43e-06 m=1 
MX8335/M2 181 X8335/6 1362 1362 NE3I L=3.5e-07 W=8.9e-07 AD=2.403e-13 AS=3.804e-13 PD=1.43e-06 PS=1.91e-06 m=1 
MX8335/M3 1362 X8335/6 181 1362 NE3I L=3.5e-07 W=8.9e-07 AD=3.494e-13 AS=2.403e-13 PD=1.86e-06 PS=1.43e-06 m=1 
MX8335/M4 181 X8335/6 1362 1362 NE3I L=3.5e-07 W=8.9e-07 AD=2.403e-13 AS=3.494e-13 PD=1.43e-06 PS=1.86e-06 m=1 
MX8335/M5 1362 X8335/6 181 1362 NE3I L=3.5e-07 W=8.9e-07 AD=3.494e-13 AS=2.403e-13 PD=1.86e-06 PS=1.43e-06 m=1 
MX8335/M6 181 X8335/6 1362 1362 NE3I L=3.5e-07 W=8.9e-07 AD=2.403e-13 AS=3.494e-13 PD=1.43e-06 PS=1.86e-06 m=1 
MX8335/M7 1362 X8335/6 181 1362 NE3I L=3.5e-07 W=8.9e-07 AD=8.702e-13 AS=2.403e-13 PD=3.94e-06 PS=1.43e-06 m=1 
MX8335/M8 1364 152 X8335/6 1364 PE3I L=3.00566e-07 W=1.47006e-06 AD=2.83187e-13 AS=5.51013e-13 PD=1.86506e-06 PS=3.69506e-06 m=1 
MX8335/M9 X8335/6 152 1364 1364 PE3I L=3.00566e-07 W=1.47006e-06 AD=2.61963e-13 AS=2.83187e-13 PD=1.87506e-06 PS=1.86506e-06 m=1 
MX8335/M10 1364 152 X8335/6 1364 PE3I L=3.00566e-07 W=1.47006e-06 AD=2.83187e-13 AS=2.61963e-13 PD=1.86506e-06 PS=1.87506e-06 m=1 
MX8335/M11 181 X8335/6 1364 1364 PE3I L=3.00566e-07 W=1.47006e-06 AD=2.61963e-13 AS=2.83187e-13 PD=1.87506e-06 PS=1.86506e-06 m=1 
MX8335/M12 1364 X8335/6 181 1364 PE3I L=3.00566e-07 W=1.47006e-06 AD=2.83187e-13 AS=2.61963e-13 PD=1.86506e-06 PS=1.87506e-06 m=1 
MX8335/M13 181 X8335/6 1364 1364 PE3I L=3.00566e-07 W=1.47006e-06 AD=2.61963e-13 AS=2.83187e-13 PD=1.87506e-06 PS=1.86506e-06 m=1 
MX8335/M14 1364 X8335/6 181 1364 PE3I L=3.00566e-07 W=1.47006e-06 AD=2.83187e-13 AS=2.61963e-13 PD=1.86506e-06 PS=1.87506e-06 m=1 
MX8335/M15 181 X8335/6 1364 1364 PE3I L=3.00566e-07 W=1.47006e-06 AD=2.61963e-13 AS=2.83187e-13 PD=1.87506e-06 PS=1.86506e-06 m=1 
MX8335/M16 1364 X8335/6 181 1364 PE3I L=3.00566e-07 W=1.47006e-06 AD=2.83187e-13 AS=2.61963e-13 PD=1.86506e-06 PS=1.87506e-06 m=1 
MX8335/M17 181 X8335/6 1364 1364 PE3I L=3.00566e-07 W=1.47006e-06 AD=2.61963e-13 AS=2.83187e-13 PD=1.87506e-06 PS=1.86506e-06 m=1 
MX8335/M18 1364 X8335/6 181 1364 PE3I L=3.00566e-07 W=1.47006e-06 AD=5.79287e-13 AS=2.61963e-13 PD=3.69506e-06 PS=1.87506e-06 m=1 
MX8336/M0 X8336/6 152 1362 1362 NE3I L=3.5e-07 W=8.9e-07 AD=2.403e-13 AS=6.098e-13 PD=1.43e-06 PS=3.52e-06 m=1 
MX8336/M1 1362 152 X8336/6 1362 NE3I L=3.5e-07 W=8.9e-07 AD=3.804e-13 AS=2.403e-13 PD=1.91e-06 PS=1.43e-06 m=1 
MX8336/M2 180 X8336/6 1362 1362 NE3I L=3.5e-07 W=8.9e-07 AD=2.403e-13 AS=3.804e-13 PD=1.43e-06 PS=1.91e-06 m=1 
MX8336/M3 1362 X8336/6 180 1362 NE3I L=3.5e-07 W=8.9e-07 AD=3.494e-13 AS=2.403e-13 PD=1.86e-06 PS=1.43e-06 m=1 
MX8336/M4 180 X8336/6 1362 1362 NE3I L=3.5e-07 W=8.9e-07 AD=2.403e-13 AS=3.494e-13 PD=1.43e-06 PS=1.86e-06 m=1 
MX8336/M5 1362 X8336/6 180 1362 NE3I L=3.5e-07 W=8.9e-07 AD=3.494e-13 AS=2.403e-13 PD=1.86e-06 PS=1.43e-06 m=1 
MX8336/M6 180 X8336/6 1362 1362 NE3I L=3.5e-07 W=8.9e-07 AD=2.403e-13 AS=3.494e-13 PD=1.43e-06 PS=1.86e-06 m=1 
MX8336/M7 1362 X8336/6 180 1362 NE3I L=3.5e-07 W=8.9e-07 AD=8.702e-13 AS=2.403e-13 PD=3.94e-06 PS=1.43e-06 m=1 
MX8336/M8 1364 152 X8336/6 1364 PE3I L=3.00566e-07 W=1.47006e-06 AD=2.83187e-13 AS=5.51013e-13 PD=1.86506e-06 PS=3.69506e-06 m=1 
MX8336/M9 X8336/6 152 1364 1364 PE3I L=3.00566e-07 W=1.47006e-06 AD=2.61963e-13 AS=2.83187e-13 PD=1.87506e-06 PS=1.86506e-06 m=1 
MX8336/M10 1364 152 X8336/6 1364 PE3I L=3.00566e-07 W=1.47006e-06 AD=2.83187e-13 AS=2.61963e-13 PD=1.86506e-06 PS=1.87506e-06 m=1 
MX8336/M11 180 X8336/6 1364 1364 PE3I L=3.00566e-07 W=1.47006e-06 AD=2.61963e-13 AS=2.83187e-13 PD=1.87506e-06 PS=1.86506e-06 m=1 
MX8336/M12 1364 X8336/6 180 1364 PE3I L=3.00566e-07 W=1.47006e-06 AD=2.83187e-13 AS=2.61963e-13 PD=1.86506e-06 PS=1.87506e-06 m=1 
MX8336/M13 180 X8336/6 1364 1364 PE3I L=3.00566e-07 W=1.47006e-06 AD=2.61963e-13 AS=2.83187e-13 PD=1.87506e-06 PS=1.86506e-06 m=1 
MX8336/M14 1364 X8336/6 180 1364 PE3I L=3.00566e-07 W=1.47006e-06 AD=2.83187e-13 AS=2.61963e-13 PD=1.86506e-06 PS=1.87506e-06 m=1 
MX8336/M15 180 X8336/6 1364 1364 PE3I L=3.00566e-07 W=1.47006e-06 AD=2.61963e-13 AS=2.83187e-13 PD=1.87506e-06 PS=1.86506e-06 m=1 
MX8336/M16 1364 X8336/6 180 1364 PE3I L=3.00566e-07 W=1.47006e-06 AD=2.83187e-13 AS=2.61963e-13 PD=1.86506e-06 PS=1.87506e-06 m=1 
MX8336/M17 180 X8336/6 1364 1364 PE3I L=3.00566e-07 W=1.47006e-06 AD=2.61963e-13 AS=2.83187e-13 PD=1.87506e-06 PS=1.86506e-06 m=1 
MX8336/M18 1364 X8336/6 180 1364 PE3I L=3.00566e-07 W=1.47006e-06 AD=5.79287e-13 AS=2.61963e-13 PD=3.69506e-06 PS=1.87506e-06 m=1 
MX8337/M0 X8337/6 191 1362 1362 NE3I L=3.5e-07 W=8.9e-07 AD=2.403e-13 AS=6.098e-13 PD=1.43e-06 PS=3.52e-06 m=1 
MX8337/M1 1362 191 X8337/6 1362 NE3I L=3.5e-07 W=8.9e-07 AD=3.804e-13 AS=2.403e-13 PD=1.91e-06 PS=1.43e-06 m=1 
MX8337/M2 1 X8337/6 1362 1362 NE3I L=3.5e-07 W=8.9e-07 AD=2.403e-13 AS=3.804e-13 PD=1.43e-06 PS=1.91e-06 m=1 
MX8337/M3 1362 X8337/6 1 1362 NE3I L=3.5e-07 W=8.9e-07 AD=3.494e-13 AS=2.403e-13 PD=1.86e-06 PS=1.43e-06 m=1 
MX8337/M4 1 X8337/6 1362 1362 NE3I L=3.5e-07 W=8.9e-07 AD=2.403e-13 AS=3.494e-13 PD=1.43e-06 PS=1.86e-06 m=1 
MX8337/M5 1362 X8337/6 1 1362 NE3I L=3.5e-07 W=8.9e-07 AD=3.494e-13 AS=2.403e-13 PD=1.86e-06 PS=1.43e-06 m=1 
MX8337/M6 1 X8337/6 1362 1362 NE3I L=3.5e-07 W=8.9e-07 AD=2.403e-13 AS=3.494e-13 PD=1.43e-06 PS=1.86e-06 m=1 
MX8337/M7 1362 X8337/6 1 1362 NE3I L=3.5e-07 W=8.9e-07 AD=8.702e-13 AS=2.403e-13 PD=3.94e-06 PS=1.43e-06 m=1 
MX8337/M8 1364 191 X8337/6 1364 PE3I L=3.00566e-07 W=1.47006e-06 AD=2.83187e-13 AS=5.51013e-13 PD=1.86506e-06 PS=3.69506e-06 m=1 
MX8337/M9 X8337/6 191 1364 1364 PE3I L=3.00566e-07 W=1.47006e-06 AD=2.61963e-13 AS=2.83187e-13 PD=1.87506e-06 PS=1.86506e-06 m=1 
MX8337/M10 1364 191 X8337/6 1364 PE3I L=3.00566e-07 W=1.47006e-06 AD=2.83187e-13 AS=2.61963e-13 PD=1.86506e-06 PS=1.87506e-06 m=1 
MX8337/M11 1 X8337/6 1364 1364 PE3I L=3.00566e-07 W=1.47006e-06 AD=2.61963e-13 AS=2.83187e-13 PD=1.87506e-06 PS=1.86506e-06 m=1 
MX8337/M12 1364 X8337/6 1 1364 PE3I L=3.00566e-07 W=1.47006e-06 AD=2.83187e-13 AS=2.61963e-13 PD=1.86506e-06 PS=1.87506e-06 m=1 
MX8337/M13 1 X8337/6 1364 1364 PE3I L=3.00566e-07 W=1.47006e-06 AD=2.61963e-13 AS=2.83187e-13 PD=1.87506e-06 PS=1.86506e-06 m=1 
MX8337/M14 1364 X8337/6 1 1364 PE3I L=3.00566e-07 W=1.47006e-06 AD=2.83187e-13 AS=2.61963e-13 PD=1.86506e-06 PS=1.87506e-06 m=1 
MX8337/M15 1 X8337/6 1364 1364 PE3I L=3.00566e-07 W=1.47006e-06 AD=2.61963e-13 AS=2.83187e-13 PD=1.87506e-06 PS=1.86506e-06 m=1 
MX8337/M16 1364 X8337/6 1 1364 PE3I L=3.00566e-07 W=1.47006e-06 AD=2.83187e-13 AS=2.61963e-13 PD=1.86506e-06 PS=1.87506e-06 m=1 
MX8337/M17 1 X8337/6 1364 1364 PE3I L=3.00566e-07 W=1.47006e-06 AD=2.61963e-13 AS=2.83187e-13 PD=1.87506e-06 PS=1.86506e-06 m=1 
MX8337/M18 1364 X8337/6 1 1364 PE3I L=3.00566e-07 W=1.47006e-06 AD=5.79287e-13 AS=2.61963e-13 PD=3.69506e-06 PS=1.87506e-06 m=1 
MX8338/M0 X8338/6 191 1362 1362 NE3I L=3.5e-07 W=8.9e-07 AD=2.403e-13 AS=6.098e-13 PD=1.43e-06 PS=3.52e-06 m=1 
MX8338/M1 1362 191 X8338/6 1362 NE3I L=3.5e-07 W=8.9e-07 AD=3.804e-13 AS=2.403e-13 PD=1.91e-06 PS=1.43e-06 m=1 
MX8338/M2 9 X8338/6 1362 1362 NE3I L=3.5e-07 W=8.9e-07 AD=2.403e-13 AS=3.804e-13 PD=1.43e-06 PS=1.91e-06 m=1 
MX8338/M3 1362 X8338/6 9 1362 NE3I L=3.5e-07 W=8.9e-07 AD=3.494e-13 AS=2.403e-13 PD=1.86e-06 PS=1.43e-06 m=1 
MX8338/M4 9 X8338/6 1362 1362 NE3I L=3.5e-07 W=8.9e-07 AD=2.403e-13 AS=3.494e-13 PD=1.43e-06 PS=1.86e-06 m=1 
MX8338/M5 1362 X8338/6 9 1362 NE3I L=3.5e-07 W=8.9e-07 AD=3.494e-13 AS=2.403e-13 PD=1.86e-06 PS=1.43e-06 m=1 
MX8338/M6 9 X8338/6 1362 1362 NE3I L=3.5e-07 W=8.9e-07 AD=2.403e-13 AS=3.494e-13 PD=1.43e-06 PS=1.86e-06 m=1 
MX8338/M7 1362 X8338/6 9 1362 NE3I L=3.5e-07 W=8.9e-07 AD=8.702e-13 AS=2.403e-13 PD=3.94e-06 PS=1.43e-06 m=1 
MX8338/M8 1364 191 X8338/6 1364 PE3I L=3.00566e-07 W=1.47006e-06 AD=2.83187e-13 AS=5.51013e-13 PD=1.86506e-06 PS=3.69506e-06 m=1 
MX8338/M9 X8338/6 191 1364 1364 PE3I L=3.00566e-07 W=1.47006e-06 AD=2.61963e-13 AS=2.83187e-13 PD=1.87506e-06 PS=1.86506e-06 m=1 
MX8338/M10 1364 191 X8338/6 1364 PE3I L=3.00566e-07 W=1.47006e-06 AD=2.83187e-13 AS=2.61963e-13 PD=1.86506e-06 PS=1.87506e-06 m=1 
MX8338/M11 9 X8338/6 1364 1364 PE3I L=3.00566e-07 W=1.47006e-06 AD=2.61963e-13 AS=2.83187e-13 PD=1.87506e-06 PS=1.86506e-06 m=1 
MX8338/M12 1364 X8338/6 9 1364 PE3I L=3.00566e-07 W=1.47006e-06 AD=2.83187e-13 AS=2.61963e-13 PD=1.86506e-06 PS=1.87506e-06 m=1 
MX8338/M13 9 X8338/6 1364 1364 PE3I L=3.00566e-07 W=1.47006e-06 AD=2.61963e-13 AS=2.83187e-13 PD=1.87506e-06 PS=1.86506e-06 m=1 
MX8338/M14 1364 X8338/6 9 1364 PE3I L=3.00566e-07 W=1.47006e-06 AD=2.83187e-13 AS=2.61963e-13 PD=1.86506e-06 PS=1.87506e-06 m=1 
MX8338/M15 9 X8338/6 1364 1364 PE3I L=3.00566e-07 W=1.47006e-06 AD=2.61963e-13 AS=2.83187e-13 PD=1.87506e-06 PS=1.86506e-06 m=1 
MX8338/M16 1364 X8338/6 9 1364 PE3I L=3.00566e-07 W=1.47006e-06 AD=2.83187e-13 AS=2.61963e-13 PD=1.86506e-06 PS=1.87506e-06 m=1 
MX8338/M17 9 X8338/6 1364 1364 PE3I L=3.00566e-07 W=1.47006e-06 AD=2.61963e-13 AS=2.83187e-13 PD=1.87506e-06 PS=1.86506e-06 m=1 
MX8338/M18 1364 X8338/6 9 1364 PE3I L=3.00566e-07 W=1.47006e-06 AD=5.79287e-13 AS=2.61963e-13 PD=3.69506e-06 PS=1.87506e-06 m=1 
MX8339/M0 X8339/6 287 1362 1362 NE3I L=3.5e-07 W=8.9e-07 AD=2.403e-13 AS=6.098e-13 PD=1.43e-06 PS=3.52e-06 m=1 
MX8339/M1 1362 287 X8339/6 1362 NE3I L=3.5e-07 W=8.9e-07 AD=3.804e-13 AS=2.403e-13 PD=1.91e-06 PS=1.43e-06 m=1 
MX8339/M2 DAC<5> X8339/6 1362 1362 NE3I L=3.5e-07 W=8.9e-07 AD=2.403e-13 AS=3.804e-13 PD=1.43e-06 PS=1.91e-06 m=1 
MX8339/M3 1362 X8339/6 DAC<5> 1362 NE3I L=3.5e-07 W=8.9e-07 AD=3.494e-13 AS=2.403e-13 PD=1.86e-06 PS=1.43e-06 m=1 
MX8339/M4 DAC<5> X8339/6 1362 1362 NE3I L=3.5e-07 W=8.9e-07 AD=2.403e-13 AS=3.494e-13 PD=1.43e-06 PS=1.86e-06 m=1 
MX8339/M5 1362 X8339/6 DAC<5> 1362 NE3I L=3.5e-07 W=8.9e-07 AD=3.494e-13 AS=2.403e-13 PD=1.86e-06 PS=1.43e-06 m=1 
MX8339/M6 DAC<5> X8339/6 1362 1362 NE3I L=3.5e-07 W=8.9e-07 AD=2.403e-13 AS=3.494e-13 PD=1.43e-06 PS=1.86e-06 m=1 
MX8339/M7 1362 X8339/6 DAC<5> 1362 NE3I L=3.5e-07 W=8.9e-07 AD=8.702e-13 AS=2.403e-13 PD=3.94e-06 PS=1.43e-06 m=1 
MX8339/M8 1364 287 X8339/6 1364 PE3I L=3.00566e-07 W=1.47006e-06 AD=2.83187e-13 AS=5.51013e-13 PD=1.86506e-06 PS=3.69506e-06 m=1 
MX8339/M9 X8339/6 287 1364 1364 PE3I L=3.00566e-07 W=1.47006e-06 AD=2.61963e-13 AS=2.83187e-13 PD=1.87506e-06 PS=1.86506e-06 m=1 
MX8339/M10 1364 287 X8339/6 1364 PE3I L=3.00566e-07 W=1.47006e-06 AD=2.83187e-13 AS=2.61963e-13 PD=1.86506e-06 PS=1.87506e-06 m=1 
MX8339/M11 DAC<5> X8339/6 1364 1364 PE3I L=3.00566e-07 W=1.47006e-06 AD=2.61963e-13 AS=2.83187e-13 PD=1.87506e-06 PS=1.86506e-06 m=1 
MX8339/M12 1364 X8339/6 DAC<5> 1364 PE3I L=3.00566e-07 W=1.47006e-06 AD=2.83187e-13 AS=2.61963e-13 PD=1.86506e-06 PS=1.87506e-06 m=1 
MX8339/M13 DAC<5> X8339/6 1364 1364 PE3I L=3.00566e-07 W=1.47006e-06 AD=2.61963e-13 AS=2.83187e-13 PD=1.87506e-06 PS=1.86506e-06 m=1 
MX8339/M14 1364 X8339/6 DAC<5> 1364 PE3I L=3.00566e-07 W=1.47006e-06 AD=2.83187e-13 AS=2.61963e-13 PD=1.86506e-06 PS=1.87506e-06 m=1 
MX8339/M15 DAC<5> X8339/6 1364 1364 PE3I L=3.00566e-07 W=1.47006e-06 AD=2.61963e-13 AS=2.83187e-13 PD=1.87506e-06 PS=1.86506e-06 m=1 
MX8339/M16 1364 X8339/6 DAC<5> 1364 PE3I L=3.00566e-07 W=1.47006e-06 AD=2.83187e-13 AS=2.61963e-13 PD=1.86506e-06 PS=1.87506e-06 m=1 
MX8339/M17 DAC<5> X8339/6 1364 1364 PE3I L=3.00566e-07 W=1.47006e-06 AD=2.61963e-13 AS=2.83187e-13 PD=1.87506e-06 PS=1.86506e-06 m=1 
MX8339/M18 1364 X8339/6 DAC<5> 1364 PE3I L=3.00566e-07 W=1.47006e-06 AD=5.79287e-13 AS=2.61963e-13 PD=3.69506e-06 PS=1.87506e-06 m=1 
MX8340/M0 X8340/6 191 1362 1362 NE3I L=3.5e-07 W=8.9e-07 AD=2.403e-13 AS=6.098e-13 PD=1.43e-06 PS=3.52e-06 m=1 
MX8340/M1 1362 191 X8340/6 1362 NE3I L=3.5e-07 W=8.9e-07 AD=3.804e-13 AS=2.403e-13 PD=1.91e-06 PS=1.43e-06 m=1 
MX8340/M2 15 X8340/6 1362 1362 NE3I L=3.5e-07 W=8.9e-07 AD=2.403e-13 AS=3.804e-13 PD=1.43e-06 PS=1.91e-06 m=1 
MX8340/M3 1362 X8340/6 15 1362 NE3I L=3.5e-07 W=8.9e-07 AD=3.494e-13 AS=2.403e-13 PD=1.86e-06 PS=1.43e-06 m=1 
MX8340/M4 15 X8340/6 1362 1362 NE3I L=3.5e-07 W=8.9e-07 AD=2.403e-13 AS=3.494e-13 PD=1.43e-06 PS=1.86e-06 m=1 
MX8340/M5 1362 X8340/6 15 1362 NE3I L=3.5e-07 W=8.9e-07 AD=3.494e-13 AS=2.403e-13 PD=1.86e-06 PS=1.43e-06 m=1 
MX8340/M6 15 X8340/6 1362 1362 NE3I L=3.5e-07 W=8.9e-07 AD=2.403e-13 AS=3.494e-13 PD=1.43e-06 PS=1.86e-06 m=1 
MX8340/M7 1362 X8340/6 15 1362 NE3I L=3.5e-07 W=8.9e-07 AD=8.702e-13 AS=2.403e-13 PD=3.94e-06 PS=1.43e-06 m=1 
MX8340/M8 1364 191 X8340/6 1364 PE3I L=3.00566e-07 W=1.47006e-06 AD=2.83187e-13 AS=5.51013e-13 PD=1.86506e-06 PS=3.69506e-06 m=1 
MX8340/M9 X8340/6 191 1364 1364 PE3I L=3.00566e-07 W=1.47006e-06 AD=2.61963e-13 AS=2.83187e-13 PD=1.87506e-06 PS=1.86506e-06 m=1 
MX8340/M10 1364 191 X8340/6 1364 PE3I L=3.00566e-07 W=1.47006e-06 AD=2.83187e-13 AS=2.61963e-13 PD=1.86506e-06 PS=1.87506e-06 m=1 
MX8340/M11 15 X8340/6 1364 1364 PE3I L=3.00566e-07 W=1.47006e-06 AD=2.61963e-13 AS=2.83187e-13 PD=1.87506e-06 PS=1.86506e-06 m=1 
MX8340/M12 1364 X8340/6 15 1364 PE3I L=3.00566e-07 W=1.47006e-06 AD=2.83187e-13 AS=2.61963e-13 PD=1.86506e-06 PS=1.87506e-06 m=1 
MX8340/M13 15 X8340/6 1364 1364 PE3I L=3.00566e-07 W=1.47006e-06 AD=2.61963e-13 AS=2.83187e-13 PD=1.87506e-06 PS=1.86506e-06 m=1 