* +++++++++++++++++++++++++++++++++++++++++++++++++++++++++ *
* CDL Netlist:                                              *
*                                                           *
* Cell Name  : aska_dig_lvs                                 *
* Netlisted  : Mon Jul 15 19:51:23 2024                     *
* PVS Version: 23.10-p043 Mon Oct 2 18:09:08 PDT 2023      *
* +++++++++++++++++++++++++++++++++++++++++++++++++++++++++ *
*.LDD
*.DEVTMPLT 0 MN(ne3i) nemi ndiff(D) p1trm(G) ndiff(S) pwitrm(B)
*.DEVTMPLT 1 MP(pe3i) pemi pdiff(D) p1trm(G) pdiff(S) dnwtrm(B)
*.DEVTMPLT 2 D(p_ddnwmv) p_ddnwmv bulk(POS) dnwtrm(NEG)
*.DEVTMPLT 3 D(p_dipdnwmv) p_dipwmv pwitrm(POS) dnwtrm(NEG)

* +++++++++++++++++++++++++++++++++++++++++++++++++++++++++ *
* Sub cell: VIA1_C_CDNS_721087476940                        *
* +++++++++++++++++++++++++++++++++++++++++++++++++++++++++ *
.subckt VIA1_C_CDNS_721087476940 1 2
** N=2 EP=2 FDC=0
.ends VIA1_C_CDNS_721087476940

* +++++++++++++++++++++++++++++++++++++++++++++++++++++++++ *
* Sub cell: VIA1_C_CDNS_721087476941                        *
* +++++++++++++++++++++++++++++++++++++++++++++++++++++++++ *
.subckt VIA1_C_CDNS_721087476941 1 2
** N=2 EP=2 FDC=0
.ends VIA1_C_CDNS_721087476941

* +++++++++++++++++++++++++++++++++++++++++++++++++++++++++ *
* Sub cell: VIA1_C_CDNS_721087476942                        *
* +++++++++++++++++++++++++++++++++++++++++++++++++++++++++ *
.subckt VIA1_C_CDNS_721087476942 1 2
** N=2 EP=2 FDC=0
.ends VIA1_C_CDNS_721087476942

* +++++++++++++++++++++++++++++++++++++++++++++++++++++++++ *
* Sub cell: VIA1_C_CDNS_721087476943                        *
* +++++++++++++++++++++++++++++++++++++++++++++++++++++++++ *
.subckt VIA1_C_CDNS_721087476943 1
** N=1 EP=1 FDC=0
.ends VIA1_C_CDNS_721087476943

* +++++++++++++++++++++++++++++++++++++++++++++++++++++++++ *
* Sub cell: VIA2_CV2_so                                     *
* +++++++++++++++++++++++++++++++++++++++++++++++++++++++++ *
.subckt VIA2_CV2_so 1
** N=1 EP=1 FDC=0
.ends VIA2_CV2_so

* +++++++++++++++++++++++++++++++++++++++++++++++++++++++++ *
* Sub cell: VIA2_CH2_so                                     *
* +++++++++++++++++++++++++++++++++++++++++++++++++++++++++ *
.subckt VIA2_CH2_so 1
** N=1 EP=1 FDC=0
.ends VIA2_CH2_so

* +++++++++++++++++++++++++++++++++++++++++++++++++++++++++ *
* Sub cell: VIA1_CV2_so                                     *
* +++++++++++++++++++++++++++++++++++++++++++++++++++++++++ *
.subckt VIA1_CV2_so 1
** N=1 EP=1 FDC=0
.ends VIA1_CV2_so

* +++++++++++++++++++++++++++++++++++++++++++++++++++++++++ *
* Sub cell: VIA1_Y_so                                       *
* +++++++++++++++++++++++++++++++++++++++++++++++++++++++++ *
.subckt VIA1_Y_so 1
** N=1 EP=1 FDC=0
.ends VIA1_Y_so

* +++++++++++++++++++++++++++++++++++++++++++++++++++++++++ *
* Sub cell: VIA1_CH1_so                                     *
* +++++++++++++++++++++++++++++++++++++++++++++++++++++++++ *
.subckt VIA1_CH1_so 1
** N=1 EP=1 FDC=0
.ends VIA1_CH1_so

* +++++++++++++++++++++++++++++++++++++++++++++++++++++++++ *
* Sub cell: VIA2_CH1_so                                     *
* +++++++++++++++++++++++++++++++++++++++++++++++++++++++++ *
.subckt VIA2_CH1_so 1
** N=1 EP=1 FDC=0
.ends VIA2_CH1_so

* +++++++++++++++++++++++++++++++++++++++++++++++++++++++++ *
* Sub cell: VIA1_CH2_so                                     *
* +++++++++++++++++++++++++++++++++++++++++++++++++++++++++ *
.subckt VIA1_CH2_so 1
** N=1 EP=1 FDC=0
.ends VIA1_CH2_so

* +++++++++++++++++++++++++++++++++++++++++++++++++++++++++ *
* Sub cell: VIA1_CV1_so                                     *
* +++++++++++++++++++++++++++++++++++++++++++++++++++++++++ *
.subckt VIA1_CV1_so 1
** N=1 EP=1 FDC=0
.ends VIA1_CV1_so

* +++++++++++++++++++++++++++++++++++++++++++++++++++++++++ *
* Sub cell: VIA1_o                                          *
* +++++++++++++++++++++++++++++++++++++++++++++++++++++++++ *
.subckt VIA1_o 1
** N=1 EP=1 FDC=0
.ends VIA1_o

* +++++++++++++++++++++++++++++++++++++++++++++++++++++++++ *
* Sub cell: VIA1_CH2_so_hd2                                 *
* +++++++++++++++++++++++++++++++++++++++++++++++++++++++++ *
.subckt VIA1_CH2_so_hd2 1
** N=1 EP=1 FDC=0
.ends VIA1_CH2_so_hd2

* +++++++++++++++++++++++++++++++++++++++++++++++++++++++++ *
* Sub cell: VIA1_CV1_hd                                     *
* +++++++++++++++++++++++++++++++++++++++++++++++++++++++++ *
.subckt VIA1_CV1_hd 1
** N=1 EP=1 FDC=0
.ends VIA1_CV1_hd

* +++++++++++++++++++++++++++++++++++++++++++++++++++++++++ *
* Sub cell: VIA2_CV1_so                                     *
* +++++++++++++++++++++++++++++++++++++++++++++++++++++++++ *
.subckt VIA2_CV1_so 1
** N=1 EP=1 FDC=0
.ends VIA2_CV1_so

* +++++++++++++++++++++++++++++++++++++++++++++++++++++++++ *
* Sub cell: VIA1_CH2_hd                                     *
* +++++++++++++++++++++++++++++++++++++++++++++++++++++++++ *
.subckt VIA1_CH2_hd 1
** N=1 EP=1 FDC=0
.ends VIA1_CH2_hd

* +++++++++++++++++++++++++++++++++++++++++++++++++++++++++ *
* Sub cell: VIA3_CH1_so                                     *
* +++++++++++++++++++++++++++++++++++++++++++++++++++++++++ *
.subckt VIA3_CH1_so 1
** N=1 EP=1 FDC=0
.ends VIA3_CH1_so

* +++++++++++++++++++++++++++++++++++++++++++++++++++++++++ *
* Sub cell: VIA3_CV2_so                                     *
* +++++++++++++++++++++++++++++++++++++++++++++++++++++++++ *
.subckt VIA3_CV2_so 1
** N=1 EP=1 FDC=0
.ends VIA3_CV2_so

* +++++++++++++++++++++++++++++++++++++++++++++++++++++++++ *
* Sub cell: VIA3_CH2_so                                     *
* +++++++++++++++++++++++++++++++++++++++++++++++++++++++++ *
.subckt VIA3_CH2_so 1
** N=1 EP=1 FDC=0
.ends VIA3_CH2_so

* +++++++++++++++++++++++++++++++++++++++++++++++++++++++++ *
* Sub cell: VIA1_CH1_eo                                     *
* +++++++++++++++++++++++++++++++++++++++++++++++++++++++++ *
.subckt VIA1_CH1_eo 1
** N=1 EP=1 FDC=0
.ends VIA1_CH1_eo

* +++++++++++++++++++++++++++++++++++++++++++++++++++++++++ *
* Sub cell: VIA1_CV2w_beo                                   *
* +++++++++++++++++++++++++++++++++++++++++++++++++++++++++ *
.subckt VIA1_CV2w_beo 1
** N=1 EP=1 FDC=0
.ends VIA1_CV2w_beo

* +++++++++++++++++++++++++++++++++++++++++++++++++++++++++ *
* Sub cell: VIA1_CV2_hd                                     *
* +++++++++++++++++++++++++++++++++++++++++++++++++++++++++ *
.subckt VIA1_CV2_hd 1
** N=1 EP=1 FDC=0
.ends VIA1_CV2_hd

* +++++++++++++++++++++++++++++++++++++++++++++++++++++++++ *
* Sub cell: VIA1_CV1e_beo                                   *
* +++++++++++++++++++++++++++++++++++++++++++++++++++++++++ *
.subckt VIA1_CV1e_beo 1
** N=1 EP=1 FDC=0
.ends VIA1_CV1e_beo

* +++++++++++++++++++++++++++++++++++++++++++++++++++++++++ *
* Sub cell: VIA1_CH2_eo                                     *
* +++++++++++++++++++++++++++++++++++++++++++++++++++++++++ *
.subckt VIA1_CH2_eo 1
** N=1 EP=1 FDC=0
.ends VIA1_CH2_eo

* +++++++++++++++++++++++++++++++++++++++++++++++++++++++++ *
* Sub cell: VIA1_CV2e_beo                                   *
* +++++++++++++++++++++++++++++++++++++++++++++++++++++++++ *
.subckt VIA1_CV2e_beo 1
** N=1 EP=1 FDC=0
.ends VIA1_CV2e_beo

* +++++++++++++++++++++++++++++++++++++++++++++++++++++++++ *
* Sub cell: VIA1_CV1w_beo                                   *
* +++++++++++++++++++++++++++++++++++++++++++++++++++++++++ *
.subckt VIA1_CV1w_beo 1
** N=1 EP=1 FDC=0
.ends VIA1_CV1w_beo

* +++++++++++++++++++++++++++++++++++++++++++++++++++++++++ *
* Sub cell: VIA1_CH1_so_hd2                                 *
* +++++++++++++++++++++++++++++++++++++++++++++++++++++++++ *
.subckt VIA1_CH1_so_hd2 1
** N=1 EP=1 FDC=0
.ends VIA1_CH1_so_hd2

* +++++++++++++++++++++++++++++++++++++++++++++++++++++++++ *
* Sub cell: VIA1_X_so                                       *
* +++++++++++++++++++++++++++++++++++++++++++++++++++++++++ *
.subckt VIA1_X_so 1
** N=1 EP=1 FDC=0
.ends VIA1_X_so

* +++++++++++++++++++++++++++++++++++++++++++++++++++++++++ *
* Sub cell: VIA3_CV1_so                                     *
* +++++++++++++++++++++++++++++++++++++++++++++++++++++++++ *
.subckt VIA3_CV1_so 1
** N=1 EP=1 FDC=0
.ends VIA3_CV1_so

* +++++++++++++++++++++++++++++++++++++++++++++++++++++++++ *
* Sub cell: VIA2_o                                          *
* +++++++++++++++++++++++++++++++++++++++++++++++++++++++++ *
.subckt VIA2_o 1
** N=1 EP=1 FDC=0
.ends VIA2_o

* +++++++++++++++++++++++++++++++++++++++++++++++++++++++++ *
* Sub cell: VIA2_CH2n_beo                                   *
* +++++++++++++++++++++++++++++++++++++++++++++++++++++++++ *
.subckt VIA2_CH2n_beo 1
** N=1 EP=1 FDC=0
.ends VIA2_CH2n_beo

* +++++++++++++++++++++++++++++++++++++++++++++++++++++++++ *
* Sub cell: VIA2_CH1n_beo                                   *
* +++++++++++++++++++++++++++++++++++++++++++++++++++++++++ *
.subckt VIA2_CH1n_beo 1
** N=1 EP=1 FDC=0
.ends VIA2_CH1n_beo

* +++++++++++++++++++++++++++++++++++++++++++++++++++++++++ *
* Sub cell: VIA1_CH2_so2                                    *
* +++++++++++++++++++++++++++++++++++++++++++++++++++++++++ *
.subckt VIA1_CH2_so2 1
** N=1 EP=1 FDC=0
.ends VIA1_CH2_so2

* +++++++++++++++++++++++++++++++++++++++++++++++++++++++++ *
* Sub cell: VIA1_CH1_so2                                    *
* +++++++++++++++++++++++++++++++++++++++++++++++++++++++++ *
.subckt VIA1_CH1_so2 1
** N=1 EP=1 FDC=0
.ends VIA1_CH1_so2

* +++++++++++++++++++++++++++++++++++++++++++++++++++++++++ *
* Sub cell: VIA2_CH2s_beo                                   *
* +++++++++++++++++++++++++++++++++++++++++++++++++++++++++ *
.subckt VIA2_CH2s_beo 1
** N=1 EP=1 FDC=0
.ends VIA2_CH2s_beo

* +++++++++++++++++++++++++++++++++++++++++++++++++++++++++ *
* Sub cell: VIA2_CH1s_beo                                   *
* +++++++++++++++++++++++++++++++++++++++++++++++++++++++++ *
.subckt VIA2_CH1s_beo 1
** N=1 EP=1 FDC=0
.ends VIA2_CH1s_beo

* +++++++++++++++++++++++++++++++++++++++++++++++++++++++++ *
* Sub cell: VIA2_CH1_hd                                     *
* +++++++++++++++++++++++++++++++++++++++++++++++++++++++++ *
.subckt VIA2_CH1_hd 1
** N=1 EP=1 FDC=0
.ends VIA2_CH1_hd

* +++++++++++++++++++++++++++++++++++++++++++++++++++++++++ *
* Sub cell: VIA2_CV1e_beo                                   *
* +++++++++++++++++++++++++++++++++++++++++++++++++++++++++ *
.subckt VIA2_CV1e_beo 1
** N=1 EP=1 FDC=0
.ends VIA2_CV1e_beo

* +++++++++++++++++++++++++++++++++++++++++++++++++++++++++ *
* Sub cell: BUJI3VX2                                        *
* +++++++++++++++++++++++++++++++++++++++++++++++++++++++++ *
.subckt BUJI3VX2 vdd3i! gnd3i! A Q 5
*.DEVICECLIMB
** N=6 EP=5 FDC=6
M0 gnd3i! A 6 gnd3i! ne3i L=3.5e-07 W=6e-07 AD=2.96727e-13 AS=2.88e-13 PD=1.69091e-06 PS=2.16e-06 $X=620 $Y=950 $dt=0
M1 Q 6 gnd3i! gnd3i! ne3i L=3.5e-07 W=7.2e-07 AD=2.016e-13 AS=3.56073e-13 PD=1.512e-06 PS=2.02909e-06 $X=1590 $Y=830 $dt=0
M2 gnd3i! 6 Q gnd3i! ne3i L=3.5e-07 W=4.8e-07 AD=4.648e-13 AS=1.344e-13 PD=3.52e-06 PS=1.008e-06 $X=2480 $Y=1070 $dt=0
M3 vdd3i! A 6 vdd3i! pe3i L=3e-07 W=1.1e-06 AD=5.39943e-13 AS=5.28e-13 PD=2.20442e-06 PS=3.16e-06 $X=620 $Y=2410 $dt=1
M4 Q 6 vdd3i! vdd3i! pe3i L=3.00472e-07 W=1.45971e-06 AD=2.751e-13 AS=7.16507e-13 PD=1.87971e-06 PS=2.92528e-06 $X=1640 $Y=2410 $dt=1
M5 vdd3i! 6 Q vdd3i! pe3i L=3.00472e-07 W=1.45971e-06 AD=8.6265e-13 AS=2.751e-13 PD=4.56971e-06 PS=1.87971e-06 $X=2480 $Y=2410 $dt=1
.ends BUJI3VX2

* +++++++++++++++++++++++++++++++++++++++++++++++++++++++++ *
* Sub cell: AND2JI3VX1                                      *
* +++++++++++++++++++++++++++++++++++++++++++++++++++++++++ *
.subckt AND2JI3VX1 vdd3i! gnd3i! A B Q 6
*.DEVICECLIMB
** N=8 EP=6 FDC=6
M0 7 A 8 gnd3i! ne3i L=3.5e-07 W=5.6e-07 AD=7e-14 AS=2.688e-13 PD=8.1e-07 PS=2.08e-06 $X=820 $Y=990 $dt=0
M1 gnd3i! B 7 gnd3i! ne3i L=3.5e-07 W=5.6e-07 AD=2.57137e-13 AS=7e-14 PD=1.43669e-06 PS=8.1e-07 $X=1420 $Y=990 $dt=0
M2 Q 8 gnd3i! gnd3i! ne3i L=3.5e-07 W=8.9e-07 AD=4.272e-13 AS=4.08663e-13 PD=2.74e-06 PS=2.28331e-06 $X=2390 $Y=660 $dt=0
M3 8 A vdd3i! vdd3i! pe3i L=3e-07 W=7e-07 AD=1.89e-13 AS=7.276e-13 PD=1.24e-06 PS=4.56e-06 $X=580 $Y=2410 $dt=1
M4 vdd3i! B 8 vdd3i! pe3i L=3e-07 W=7e-07 AD=3.64829e-13 AS=1.89e-13 PD=1.6455e-06 PS=1.24e-06 $X=1420 $Y=2410 $dt=1
M5 Q 8 vdd3i! vdd3i! pe3i L=3e-07 W=1.41e-06 AD=6.768e-13 AS=7.34871e-13 PD=3.78e-06 PS=3.3145e-06 $X=2440 $Y=2410 $dt=1
.ends AND2JI3VX1

* +++++++++++++++++++++++++++++++++++++++++++++++++++++++++ *
* Sub cell: EN2JI3VX0                                       *
* +++++++++++++++++++++++++++++++++++++++++++++++++++++++++ *
.subckt EN2JI3VX0 vdd3i! gnd3i! A B Q 6
*.DEVICECLIMB
** N=10 EP=6 FDC=10
M0 8 A 9 gnd3i! ne3i L=3.5e-07 W=4.2e-07 AD=5.25e-14 AS=2.016e-13 PD=6.7e-07 PS=1.8e-06 $X=620 $Y=980 $dt=0
M1 gnd3i! B 8 gnd3i! ne3i L=3.5e-07 W=4.2e-07 AD=1.134e-13 AS=5.25e-14 PD=9.6e-07 PS=6.7e-07 $X=1220 $Y=980 $dt=0
M2 7 A gnd3i! gnd3i! ne3i L=3.5e-07 W=4.2e-07 AD=1.134e-13 AS=1.134e-13 PD=9.6e-07 PS=9.6e-07 $X=2110 $Y=980 $dt=0
M3 gnd3i! B 7 gnd3i! ne3i L=3.5e-07 W=4.2e-07 AD=3.698e-13 AS=1.134e-13 PD=3.22e-06 PS=9.6e-07 $X=3000 $Y=980 $dt=0
M4 Q 9 7 gnd3i! ne3i L=3.5e-07 W=4.2e-07 AD=2.016e-13 AS=2.058e-13 PD=1.8e-06 PS=1.82e-06 $X=4440 $Y=1020 $dt=0
M5 9 A vdd3i! vdd3i! pe3i L=3e-07 W=9e-07 AD=3.195e-13 AS=8.517e-13 PD=1.61e-06 PS=4.61e-06 $X=685 $Y=2410 $dt=1
M6 vdd3i! B 9 vdd3i! pe3i L=3e-07 W=9e-07 AD=4.30855e-13 AS=3.195e-13 PD=1.83273e-06 PS=1.61e-06 $X=1695 $Y=2410 $dt=1
M7 10 A vdd3i! vdd3i! pe3i L=3e-07 W=1.3e-06 AD=1.95e-13 AS=6.22345e-13 PD=1.6e-06 PS=2.64727e-06 $X=2825 $Y=2520 $dt=1
M8 Q B 10 vdd3i! pe3i L=3e-07 W=1.3e-06 AD=6.21324e-13 AS=1.95e-13 PD=2.52941e-06 PS=1.6e-06 $X=3425 $Y=2520 $dt=1
M9 vdd3i! 9 Q vdd3i! pe3i L=3e-07 W=9.1e-07 AD=8.0675e-13 AS=4.34926e-13 PD=4.39e-06 PS=1.77059e-06 $X=4575 $Y=2520 $dt=1
.ends EN2JI3VX0

* +++++++++++++++++++++++++++++++++++++++++++++++++++++++++ *
* Sub cell: NA2I1JI3VX1                                     *
* +++++++++++++++++++++++++++++++++++++++++++++++++++++++++ *
.subckt NA2I1JI3VX1 vdd3i! gnd3i! AN Q B 6
*.DEVICECLIMB
** N=8 EP=6 FDC=6
M0 gnd3i! AN 8 gnd3i! ne3i L=3.5e-07 W=4.2e-07 AD=2.44754e-13 AS=2.016e-13 PD=1.25038e-06 PS=1.8e-06 $X=620 $Y=660 $dt=0
M1 7 8 gnd3i! gnd3i! ne3i L=3.5e-07 W=8.9e-07 AD=1.1125e-13 AS=5.18646e-13 PD=1.14e-06 PS=2.64962e-06 $X=1680 $Y=660 $dt=0
M2 Q B 7 gnd3i! ne3i L=3.5e-07 W=8.9e-07 AD=4.272e-13 AS=1.1125e-13 PD=2.74e-06 PS=1.14e-06 $X=2280 $Y=660 $dt=0
M3 vdd3i! AN 8 vdd3i! pe3i L=3e-07 W=7e-07 AD=6.84341e-13 AS=3.36e-13 PD=3.08e-06 PS=2.36e-06 $X=620 $Y=2410 $dt=1
M4 Q 8 vdd3i! vdd3i! pe3i L=3e-07 W=1e-06 AD=2.7e-13 AS=9.7763e-13 PD=1.54e-06 PS=4.4e-06 $X=1510 $Y=2410 $dt=1
M5 vdd3i! B Q vdd3i! pe3i L=3e-07 W=1e-06 AD=9.7763e-13 AS=2.7e-13 PD=4.4e-06 PS=1.54e-06 $X=2350 $Y=2410 $dt=1
.ends NA2I1JI3VX1

* +++++++++++++++++++++++++++++++++++++++++++++++++++++++++ *
* Sub cell: NO3I2JI3VX1                                     *
* +++++++++++++++++++++++++++++++++++++++++++++++++++++++++ *
.subckt NO3I2JI3VX1 vdd3i! gnd3i! AN BN C Q 7
*.DEVICECLIMB
** N=10 EP=7 FDC=8
M0 8 AN 9 gnd3i! ne3i L=3.5e-07 W=4.8e-07 AD=6e-14 AS=2.304e-13 PD=7.3e-07 PS=1.92e-06 $X=620 $Y=1070 $dt=0
M1 gnd3i! BN 8 gnd3i! ne3i L=3.5e-07 W=4.8e-07 AD=1.98937e-13 AS=6e-14 PD=1.31617e-06 PS=7.3e-07 $X=1220 $Y=1070 $dt=0
M2 Q C gnd3i! gnd3i! ne3i L=3.5e-07 W=8.9e-07 AD=2.403e-13 AS=3.68863e-13 PD=1.43e-06 PS=2.4404e-06 $X=2060 $Y=660 $dt=0
M3 gnd3i! 9 Q gnd3i! ne3i L=3.5e-07 W=8.9e-07 AD=4.329e-13 AS=2.403e-13 PD=2.77e-06 PS=1.43e-06 $X=2950 $Y=660 $dt=0
M4 9 AN vdd3i! vdd3i! pe3i L=3e-07 W=7e-07 AD=1.89e-13 AS=5.71409e-13 PD=1.24e-06 PS=2.5758e-06 $X=560 $Y=2590 $dt=1
M5 vdd3i! BN 9 vdd3i! pe3i L=3e-07 W=7e-07 AD=5.71409e-13 AS=1.89e-13 PD=2.5758e-06 PS=1.24e-06 $X=1400 $Y=2590 $dt=1
M6 10 C vdd3i! vdd3i! pe3i L=3e-07 W=1.41e-06 AD=1.7625e-13 AS=1.15098e-12 PD=1.66e-06 PS=5.1884e-06 $X=2330 $Y=2410 $dt=1
M7 Q 9 10 vdd3i! pe3i L=3e-07 W=1.41e-06 AD=8.46e-13 AS=1.7625e-13 PD=4.02e-06 PS=1.66e-06 $X=2880 $Y=2410 $dt=1
.ends NO3I2JI3VX1

* +++++++++++++++++++++++++++++++++++++++++++++++++++++++++ *
* Sub cell: NA2JI3VX1                                       *
* +++++++++++++++++++++++++++++++++++++++++++++++++++++++++ *
.subckt NA2JI3VX1 vdd3i! gnd3i! B Q A 6
*.DEVICECLIMB
** N=7 EP=6 FDC=4
M0 7 B gnd3i! gnd3i! ne3i L=3.5e-07 W=8.9e-07 AD=1.1125e-13 AS=6.222e-13 PD=1.14e-06 PS=3.54e-06 $X=670 $Y=660 $dt=0
M1 Q A 7 gnd3i! ne3i L=3.5e-07 W=8.9e-07 AD=4.272e-13 AS=1.1125e-13 PD=2.74e-06 PS=1.14e-06 $X=1270 $Y=660 $dt=0
M2 Q B vdd3i! vdd3i! pe3i L=3e-07 W=1e-06 AD=2.7e-13 AS=9.404e-13 PD=1.54e-06 PS=5.24e-06 $X=550 $Y=2410 $dt=1
M3 vdd3i! A Q vdd3i! pe3i L=3e-07 W=1e-06 AD=9.404e-13 AS=2.7e-13 PD=5.24e-06 PS=1.54e-06 $X=1390 $Y=2410 $dt=1
.ends NA2JI3VX1

* +++++++++++++++++++++++++++++++++++++++++++++++++++++++++ *
* Sub cell: BUJI3VX1                                        *
* +++++++++++++++++++++++++++++++++++++++++++++++++++++++++ *
.subckt BUJI3VX1 vdd3i! gnd3i! A Q 5
*.DEVICECLIMB
** N=6 EP=5 FDC=4
M0 gnd3i! A 6 gnd3i! ne3i L=3.5e-07 W=4.2e-07 AD=2.44533e-13 AS=2.016e-13 PD=1.44667e-06 PS=1.8e-06 $X=620 $Y=1130 $dt=0
M1 Q 6 gnd3i! gnd3i! ne3i L=3.5e-07 W=6.6e-07 AD=2.88e-13 AS=3.84267e-13 PD=2.28e-06 PS=2.27333e-06 $X=1590 $Y=890 $dt=0
M2 vdd3i! A 6 vdd3i! pe3i L=3e-07 W=9e-07 AD=4.7931e-13 AS=4.32e-13 PD=1.95649e-06 PS=2.76e-06 $X=620 $Y=2410 $dt=1
M3 Q 6 vdd3i! vdd3i! pe3i L=3.00472e-07 W=1.45971e-06 AD=5.712e-13 AS=7.7739e-13 PD=3.70971e-06 PS=3.17322e-06 $X=1640 $Y=2410 $dt=1
.ends BUJI3VX1

* +++++++++++++++++++++++++++++++++++++++++++++++++++++++++ *
* Sub cell: DFRRQJI3VX4                                     *
* +++++++++++++++++++++++++++++++++++++++++++++++++++++++++ *
.subckt DFRRQJI3VX4 vdd3i! gnd3i! RN D C Q 7
*.DEVICECLIMB
** N=23 EP=7 FDC=36
M0 gnd3i! 17 19 gnd3i! ne3i L=3.5e-07 W=8.9e-07 AD=2.403e-13 AS=4.272e-13 PD=1.43e-06 PS=2.74e-06 $X=620 $Y=660 $dt=0
M1 10 RN gnd3i! gnd3i! ne3i L=3.5e-07 W=8.9e-07 AD=3.28952e-13 AS=2.403e-13 PD=2.36956e-06 PS=1.43e-06 $X=1510 $Y=660 $dt=0
M2 18 19 10 gnd3i! ne3i L=3.5e-07 W=4.2e-07 AD=5.25e-14 AS=1.55236e-13 PD=6.7e-07 PS=1.11822e-06 $X=2340 $Y=1390 $dt=0
M3 17 9 18 gnd3i! ne3i L=3.5e-07 W=4.2e-07 AD=1.134e-13 AS=5.25e-14 PD=9.6e-07 PS=6.7e-07 $X=2940 $Y=1390 $dt=0
M4 16 15 17 gnd3i! ne3i L=3.5e-07 W=4.2e-07 AD=5.25e-14 AS=1.134e-13 PD=6.7e-07 PS=9.6e-07 $X=3830 $Y=1390 $dt=0
M5 10 D 16 gnd3i! ne3i L=3.5e-07 W=4.2e-07 AD=2.835e-13 AS=5.25e-14 PD=2.19e-06 PS=6.7e-07 $X=4430 $Y=1390 $dt=0
M6 gnd3i! C 15 gnd3i! ne3i L=3.5e-07 W=4.2e-07 AD=1.659e-13 AS=2.016e-13 PD=1.21e-06 PS=1.8e-06 $X=6060 $Y=1390 $dt=0
M7 9 15 gnd3i! gnd3i! ne3i L=3.5e-07 W=4.2e-07 AD=2.95e-13 AS=1.659e-13 PD=2.23e-06 PS=1.21e-06 $X=7045 $Y=1390 $dt=0
M8 14 19 8 gnd3i! ne3i L=3.5e-07 W=4.2e-07 AD=5.25e-14 AS=2.016e-13 PD=6.7e-07 PS=1.8e-06 $X=8695 $Y=1020 $dt=0
M9 13 9 14 gnd3i! ne3i L=3.5e-07 W=4.2e-07 AD=1.134e-13 AS=5.25e-14 PD=9.6e-07 PS=6.7e-07 $X=9295 $Y=1020 $dt=0
M10 12 15 13 gnd3i! ne3i L=3.5e-07 W=4.2e-07 AD=5.25e-14 AS=1.134e-13 PD=6.7e-07 PS=9.6e-07 $X=10185 $Y=1020 $dt=0
M11 8 11 12 gnd3i! ne3i L=3.5e-07 W=4.2e-07 AD=1.55817e-13 AS=5.25e-14 PD=9.68244e-07 PS=6.7e-07 $X=10785 $Y=1020 $dt=0
M12 gnd3i! RN 8 gnd3i! ne3i L=3.5e-07 W=8.9e-07 AD=2.60325e-13 AS=3.30183e-13 PD=1.475e-06 PS=2.05176e-06 $X=11755 $Y=660 $dt=0
M13 11 13 gnd3i! gnd3i! ne3i L=3.5e-07 W=8.9e-07 AD=4.272e-13 AS=2.60325e-13 PD=2.74e-06 PS=1.475e-06 $X=12690 $Y=660 $dt=0
M14 Q 13 gnd3i! gnd3i! ne3i L=3.5e-07 W=8.9e-07 AD=2.403e-13 AS=4.272e-13 PD=1.43e-06 PS=2.74e-06 $X=14280 $Y=660 $dt=0
M15 gnd3i! 13 Q gnd3i! ne3i L=3.5e-07 W=8.9e-07 AD=2.403e-13 AS=2.403e-13 PD=1.43e-06 PS=1.43e-06 $X=15170 $Y=660 $dt=0
M16 Q 13 gnd3i! gnd3i! ne3i L=3.5e-07 W=8.9e-07 AD=2.403e-13 AS=2.403e-13 PD=1.43e-06 PS=1.43e-06 $X=16060 $Y=660 $dt=0
M17 gnd3i! 13 Q gnd3i! ne3i L=3.5e-07 W=8.9e-07 AD=4.272e-13 AS=2.403e-13 PD=2.74e-06 PS=1.43e-06 $X=16950 $Y=660 $dt=0
M18 vdd3i! 17 19 vdd3i! pe3i L=3e-07 W=1.41e-06 AD=4.54046e-13 AS=6.768e-13 PD=2.58169e-06 PS=3.78e-06 $X=620 $Y=2410 $dt=1
M19 17 RN vdd3i! vdd3i! pe3i L=3e-07 W=7.2e-07 AD=3.136e-13 AS=2.31854e-13 PD=2.4e-06 PS=1.31831e-06 $X=1460 $Y=2670 $dt=1
M20 23 19 vdd3i! vdd3i! pe3i L=3e-07 W=4.2e-07 AD=5.25e-14 AS=5.1875e-13 PD=6.7e-07 PS=2.99e-06 $X=3080 $Y=3400 $dt=1
M21 17 15 23 vdd3i! pe3i L=3e-07 W=4.2e-07 AD=1.21617e-13 AS=5.25e-14 PD=9.13043e-07 PS=6.7e-07 $X=3630 $Y=3400 $dt=1
M22 22 9 17 vdd3i! pe3i L=3e-07 W=9.6e-07 AD=1.2e-13 AS=2.77983e-13 PD=1.21e-06 PS=2.08696e-06 $X=4470 $Y=2860 $dt=1
M23 vdd3i! D 22 vdd3i! pe3i L=3e-07 W=9.6e-07 AD=5.00229e-13 AS=1.2e-13 PD=2.34286e-06 PS=1.21e-06 $X=5020 $Y=2860 $dt=1
M24 15 C vdd3i! vdd3i! pe3i L=3e-07 W=7.2e-07 AD=4.94875e-13 AS=3.75171e-13 PD=3.04e-06 PS=1.75714e-06 $X=6060 $Y=2860 $dt=1
M25 vdd3i! 15 9 vdd3i! pe3i L=3e-07 W=7.2e-07 AD=3.92547e-13 AS=3.528e-13 PD=1.8586e-06 PS=2.42e-06 $X=7720 $Y=2670 $dt=1
M26 21 19 vdd3i! vdd3i! pe3i L=3e-07 W=1e-06 AD=1.25e-13 AS=5.45203e-13 PD=1.25e-06 PS=2.5814e-06 $X=8740 $Y=2820 $dt=1
M27 13 15 21 vdd3i! pe3i L=3e-07 W=1e-06 AD=2.96338e-13 AS=1.25e-13 PD=2.19718e-06 PS=1.25e-06 $X=9290 $Y=2820 $dt=1
M28 20 9 13 vdd3i! pe3i L=3e-07 W=4.2e-07 AD=5.25e-14 AS=1.24462e-13 PD=6.7e-07 PS=9.22817e-07 $X=10150 $Y=3235 $dt=1
M29 vdd3i! 11 20 vdd3i! pe3i L=3e-07 W=4.2e-07 AD=2.90656e-13 AS=5.25e-14 PD=1.25671e-06 PS=6.7e-07 $X=10700 $Y=3235 $dt=1
M30 vdd3i! RN 13 vdd3i! pe3i L=3e-07 W=7.2e-07 AD=4.98268e-13 AS=2.976e-13 PD=2.15435e-06 PS=2.4e-06 $X=11900 $Y=2410 $dt=1
M31 11 13 vdd3i! vdd3i! pe3i L=3e-07 W=1.41e-06 AD=6.768e-13 AS=9.75775e-13 PD=3.78e-06 PS=4.21894e-06 $X=12740 $Y=2410 $dt=1
M32 Q 13 vdd3i! vdd3i! pe3i L=3e-07 W=1.41e-06 AD=3.807e-13 AS=1.1618e-12 PD=1.95e-06 PS=4.88e-06 $X=14480 $Y=2410 $dt=1
M33 vdd3i! 13 Q vdd3i! pe3i L=3e-07 W=1.41e-06 AD=3.807e-13 AS=3.807e-13 PD=1.95e-06 PS=1.95e-06 $X=15320 $Y=2410 $dt=1
M34 Q 13 vdd3i! vdd3i! pe3i L=3e-07 W=1.41e-06 AD=3.807e-13 AS=3.807e-13 PD=1.95e-06 PS=1.95e-06 $X=16160 $Y=2410 $dt=1
M35 vdd3i! 13 Q vdd3i! pe3i L=3e-07 W=1.41e-06 AD=6.768e-13 AS=3.807e-13 PD=3.78e-06 PS=1.95e-06 $X=17000 $Y=2410 $dt=1
.ends DFRRQJI3VX4

* +++++++++++++++++++++++++++++++++++++++++++++++++++++++++ *
* Sub cell: BUJI3VX0                                        *
* +++++++++++++++++++++++++++++++++++++++++++++++++++++++++ *
.subckt BUJI3VX0 vdd3i! gnd3i! A Q 5
*.DEVICECLIMB
** N=6 EP=5 FDC=4
M0 gnd3i! A 6 gnd3i! ne3i L=3.5e-07 W=4.2e-07 AD=3.923e-13 AS=2.016e-13 PD=2.005e-06 PS=1.8e-06 $X=620 $Y=1130 $dt=0
M1 Q 6 gnd3i! gnd3i! ne3i L=3.5e-07 W=4.2e-07 AD=2.016e-13 AS=3.923e-13 PD=1.8e-06 PS=2.005e-06 $X=1735 $Y=1130 $dt=0
M2 vdd3i! A 6 vdd3i! pe3i L=3e-07 W=9e-07 AD=5.7805e-13 AS=4.32e-13 PD=2.33911e-06 PS=2.76e-06 $X=620 $Y=2410 $dt=1
M3 Q 6 vdd3i! vdd3i! pe3i L=3e-07 W=1.12e-06 AD=5.376e-13 AS=7.1935e-13 PD=3.2e-06 PS=2.91089e-06 $X=1785 $Y=2410 $dt=1
.ends BUJI3VX0

* +++++++++++++++++++++++++++++++++++++++++++++++++++++++++ *
* Sub cell: AN21JI3VX1                                      *
* +++++++++++++++++++++++++++++++++++++++++++++++++++++++++ *
.subckt AN21JI3VX1 vdd3i! gnd3i! B A Q C 7
*.DEVICECLIMB
** N=9 EP=7 FDC=6
M0 8 B gnd3i! gnd3i! ne3i L=3.5e-07 W=8.9e-07 AD=1.1125e-13 AS=6.47e-13 PD=1.14e-06 PS=3.58e-06 $X=690 $Y=660 $dt=0
M1 Q A 8 gnd3i! ne3i L=3.5e-07 W=8.9e-07 AD=3.28413e-13 AS=1.1125e-13 PD=1.78572e-06 PS=1.14e-06 $X=1290 $Y=660 $dt=0
M2 gnd3i! C Q gnd3i! ne3i L=3.5e-07 W=6.65e-07 AD=6.369e-13 AS=2.45387e-13 PD=3.6e-06 PS=1.33428e-06 $X=2310 $Y=885 $dt=0
M3 vdd3i! B 9 vdd3i! pe3i L=3e-07 W=1.41e-06 AD=4.371e-13 AS=6.768e-13 PD=2.03e-06 PS=3.78e-06 $X=620 $Y=2410 $dt=1
M4 9 A vdd3i! vdd3i! pe3i L=3e-07 W=1.41e-06 AD=3.807e-13 AS=4.371e-13 PD=1.95e-06 PS=2.03e-06 $X=1540 $Y=2410 $dt=1
M5 Q C 9 vdd3i! pe3i L=3e-07 W=1.41e-06 AD=7.614e-13 AS=3.807e-13 PD=3.9e-06 PS=1.95e-06 $X=2380 $Y=2410 $dt=1
.ends AN21JI3VX1

* +++++++++++++++++++++++++++++++++++++++++++++++++++++++++ *
* Sub cell: EN3JI3VX1                                       *
* +++++++++++++++++++++++++++++++++++++++++++++++++++++++++ *
.subckt EN3JI3VX1 vdd3i! gnd3i! C B A Q 7
*.DEVICECLIMB
** N=16 EP=7 FDC=20
M0 13 C gnd3i! gnd3i! ne3i L=3.5e-07 W=4.2e-07 AD=1.134e-13 AS=2.016e-13 PD=9.6e-07 PS=1.8e-06 $X=620 $Y=1030 $dt=0
M1 gnd3i! B 13 gnd3i! ne3i L=3.5e-07 W=4.2e-07 AD=1.97668e-13 AS=1.134e-13 PD=1.24213e-06 PS=9.6e-07 $X=1510 $Y=1030 $dt=0
M2 12 C gnd3i! gnd3i! ne3i L=3.5e-07 W=5.2e-07 AD=6.5e-14 AS=2.44732e-13 PD=7.7e-07 PS=1.53787e-06 $X=2730 $Y=930 $dt=0
M3 11 B 12 gnd3i! ne3i L=3.5e-07 W=5.2e-07 AD=1.404e-13 AS=6.5e-14 PD=1.06e-06 PS=7.7e-07 $X=3330 $Y=930 $dt=0
M4 gnd3i! 13 11 gnd3i! ne3i L=3.5e-07 W=5.2e-07 AD=5.308e-13 AS=1.404e-13 PD=3.32e-06 PS=1.06e-06 $X=4220 $Y=930 $dt=0
M5 9 11 10 gnd3i! ne3i L=3.5e-07 W=4.2e-07 AD=5.25e-14 AS=2.016e-13 PD=6.7e-07 PS=1.8e-06 $X=5850 $Y=970 $dt=0
M6 gnd3i! A 9 gnd3i! ne3i L=3.5e-07 W=4.2e-07 AD=1.134e-13 AS=5.25e-14 PD=9.6e-07 PS=6.7e-07 $X=6450 $Y=970 $dt=0
M7 8 A gnd3i! gnd3i! ne3i L=3.5e-07 W=4.2e-07 AD=1.134e-13 AS=1.134e-13 PD=9.6e-07 PS=9.6e-07 $X=7340 $Y=970 $dt=0
M8 gnd3i! 11 8 gnd3i! ne3i L=3.5e-07 W=4.2e-07 AD=3.965e-13 AS=1.134e-13 PD=3.17071e-06 PS=9.6e-07 $X=8230 $Y=970 $dt=0
M9 Q 10 8 gnd3i! ne3i L=3.5e-07 W=4.2e-07 AD=2.016e-13 AS=2.0035e-13 PD=1.8e-06 PS=1.77071e-06 $X=9670 $Y=1130 $dt=0
M10 16 C vdd3i! vdd3i! pe3i L=3e-07 W=1.41e-06 AD=2.115e-13 AS=7.1585e-13 PD=1.71e-06 PS=3.85e-06 $X=645 $Y=2410 $dt=1
M11 13 B 16 vdd3i! pe3i L=3e-07 W=1.41e-06 AD=5.5365e-13 AS=2.115e-13 PD=3.83e-06 PS=1.71e-06 $X=1245 $Y=2410 $dt=1
M12 vdd3i! C 14 vdd3i! pe3i L=3e-07 W=1.41e-06 AD=4.23e-13 AS=5.8645e-13 PD=2.01e-06 PS=3.83e-06 $X=2675 $Y=2410 $dt=1
M13 14 B vdd3i! vdd3i! pe3i L=3e-07 W=1.41e-06 AD=4.1595e-13 AS=4.23e-13 PD=2e-06 PS=2.01e-06 $X=3575 $Y=2410 $dt=1
M14 11 13 14 vdd3i! pe3i L=3e-07 W=1.41e-06 AD=7.1205e-13 AS=4.1595e-13 PD=3.83e-06 PS=2e-06 $X=4465 $Y=2410 $dt=1
M15 10 11 vdd3i! vdd3i! pe3i L=3e-07 W=1.41e-06 AD=4.1595e-13 AS=9.1545e-13 PD=2e-06 PS=4.61e-06 $X=6095 $Y=2410 $dt=1
M16 vdd3i! A 10 vdd3i! pe3i L=3e-07 W=1.41e-06 AD=6.956e-13 AS=4.1595e-13 PD=2.63e-06 PS=2e-06 $X=6985 $Y=2410 $dt=1
M17 15 A vdd3i! vdd3i! pe3i L=3e-07 W=1.41e-06 AD=2.115e-13 AS=6.956e-13 PD=1.71e-06 PS=2.63e-06 $X=8155 $Y=2410 $dt=1
M18 Q 11 15 vdd3i! pe3i L=3e-07 W=1.41e-06 AD=4.66787e-13 AS=2.115e-13 PD=2.36668e-06 PS=1.71e-06 $X=8755 $Y=2410 $dt=1
M19 vdd3i! 10 Q vdd3i! pe3i L=3e-07 W=9.85e-07 AD=8.62325e-13 AS=3.26088e-13 PD=4.61e-06 PS=1.65332e-06 $X=9655 $Y=2410 $dt=1
.ends EN3JI3VX1

* +++++++++++++++++++++++++++++++++++++++++++++++++++++++++ *
* Sub cell: NA3I2JI3VX1                                     *
* +++++++++++++++++++++++++++++++++++++++++++++++++++++++++ *
.subckt NA3I2JI3VX1 vdd3i! gnd3i! AN BN C Q 7
*.DEVICECLIMB
** N=10 EP=7 FDC=8
M0 9 AN gnd3i! gnd3i! ne3i L=3.5e-07 W=4.2e-07 AD=1.134e-13 AS=4.00432e-13 PD=9.6e-07 PS=2.10243e-06 $X=540 $Y=1130 $dt=0
M1 gnd3i! BN 9 gnd3i! ne3i L=3.5e-07 W=4.2e-07 AD=4.00432e-13 AS=1.134e-13 PD=2.10243e-06 PS=9.6e-07 $X=1430 $Y=1130 $dt=0
M2 8 C gnd3i! gnd3i! ne3i L=3.5e-07 W=8.9e-07 AD=1.1125e-13 AS=8.48535e-13 PD=1.14e-06 PS=4.45514e-06 $X=2290 $Y=660 $dt=0
M3 Q 9 8 gnd3i! ne3i L=3.5e-07 W=8.9e-07 AD=4.806e-13 AS=1.1125e-13 PD=2.86e-06 PS=1.14e-06 $X=2890 $Y=660 $dt=0
M4 10 AN 9 vdd3i! pe3i L=3e-07 W=8.5e-07 AD=1.0625e-13 AS=4.08e-13 PD=1.1e-06 PS=2.66e-06 $X=620 $Y=2410 $dt=1
M5 vdd3i! BN 10 vdd3i! pe3i L=3e-07 W=8.5e-07 AD=7.38476e-13 AS=1.0625e-13 PD=3.31526e-06 PS=1.1e-06 $X=1170 $Y=2410 $dt=1
M6 vdd3i! C Q vdd3i! pe3i L=3.00037e-07 W=1.00071e-06 AD=8.69412e-13 AS=2.376e-13 PD=3.90308e-06 PS=1.49071e-06 $X=2170 $Y=2410 $dt=1
M7 Q 9 vdd3i! vdd3i! pe3i L=3.00037e-07 W=1.00071e-06 AD=2.376e-13 AS=8.69412e-13 PD=1.49071e-06 PS=3.90308e-06 $X=3010 $Y=2410 $dt=1
.ends NA3I2JI3VX1

* +++++++++++++++++++++++++++++++++++++++++++++++++++++++++ *
* Sub cell: NA22JI3VX1                                      *
* +++++++++++++++++++++++++++++++++++++++++++++++++++++++++ *
.subckt NA22JI3VX1 vdd3i! gnd3i! A B C Q 7
*.DEVICECLIMB
** N=10 EP=7 FDC=8
M0 9 A 10 gnd3i! ne3i L=3.5e-07 W=5.6e-07 AD=7e-14 AS=2.688e-13 PD=8.1e-07 PS=2.08e-06 $X=620 $Y=990 $dt=0
M1 gnd3i! B 9 gnd3i! ne3i L=3.5e-07 W=5.6e-07 AD=3.3376e-13 AS=7e-14 PD=1.56028e-06 PS=8.1e-07 $X=1220 $Y=990 $dt=0
M2 8 C gnd3i! gnd3i! ne3i L=3.5e-07 W=8.9e-07 AD=1.1125e-13 AS=5.3044e-13 PD=1.14e-06 PS=2.47972e-06 $X=2350 $Y=660 $dt=0
M3 Q 10 8 gnd3i! ne3i L=3.5e-07 W=8.9e-07 AD=4.272e-13 AS=1.1125e-13 PD=2.74e-06 PS=1.14e-06 $X=2950 $Y=660 $dt=0
M4 10 A vdd3i! vdd3i! pe3i L=3e-07 W=7e-07 AD=1.89e-13 AS=7.66562e-13 PD=1.24e-06 PS=3.33273e-06 $X=510 $Y=2410 $dt=1
M5 vdd3i! B 10 vdd3i! pe3i L=3e-07 W=7e-07 AD=7.66562e-13 AS=1.89e-13 PD=3.33273e-06 PS=1.24e-06 $X=1350 $Y=2410 $dt=1
M6 vdd3i! C Q vdd3i! pe3i L=3.00052e-07 W=9.98995e-07 AD=1.09399e-12 AS=2.255e-13 PD=4.75626e-06 PS=1.46899e-06 $X=2190 $Y=2410 $dt=1
M7 Q 10 vdd3i! vdd3i! pe3i L=3.00052e-07 W=9.98995e-07 AD=2.255e-13 AS=1.09399e-12 PD=1.46899e-06 PS=4.75626e-06 $X=3030 $Y=2410 $dt=1
.ends NA22JI3VX1

* +++++++++++++++++++++++++++++++++++++++++++++++++++++++++ *
* Sub cell: AN22JI3VX1                                      *
* +++++++++++++++++++++++++++++++++++++++++++++++++++++++++ *
.subckt AN22JI3VX1 vdd3i! gnd3i! B A Q C D 8
*.DEVICECLIMB
** N=11 EP=8 FDC=8
M0 10 B gnd3i! gnd3i! ne3i L=3.5e-07 W=8.9e-07 AD=1.1125e-13 AS=6.098e-13 PD=1.14e-06 PS=3.52e-06 $X=660 $Y=660 $dt=0
M1 Q A 10 gnd3i! ne3i L=3.5e-07 W=8.9e-07 AD=2.403e-13 AS=1.1125e-13 PD=1.43e-06 PS=1.14e-06 $X=1260 $Y=660 $dt=0
M2 9 C Q gnd3i! ne3i L=3.5e-07 W=8.9e-07 AD=1.1125e-13 AS=2.403e-13 PD=1.14e-06 PS=1.43e-06 $X=2150 $Y=660 $dt=0
M3 gnd3i! D 9 gnd3i! ne3i L=3.5e-07 W=8.9e-07 AD=8.082e-13 AS=1.1125e-13 PD=3.84e-06 PS=1.14e-06 $X=2750 $Y=660 $dt=0
M4 vdd3i! B 11 vdd3i! pe3i L=3.01094e-07 W=1.47213e-06 AD=4.29e-13 AS=6.0945e-13 PD=2.32213e-06 PS=3.77213e-06 $X=660 $Y=2410 $dt=1
M5 11 A vdd3i! vdd3i! pe3i L=3.01094e-07 W=1.47213e-06 AD=4.05825e-13 AS=4.29e-13 PD=2.06213e-06 PS=2.32213e-06 $X=1310 $Y=2410 $dt=1